/*---------------------------------------------------------------------------*\
| =========                 |                                                 |
| \\      /  F ield         | OpenFOAM: The Open Source CFD Toolbox           |
|  \\    /   O peration     | Version:  2.3.x                                 |
|   \\  /    A nd           | Web:      www.OpenFOAM.org                      |
|    \\/     M anipulation  |                                                 |
\*---------------------------------------------------------------------------*/
Build  : 2.3.x
Exec   : patchIntegrate -time 0:3.52 phi inlet0 -parallel
Date   : Jul 05 2018
Time   : 18:02:11
Host   : "visu"
PID    : 10657
Case   : /home/lmfa/hluo/LocalSoftware/OpenFOAM/hluo-2.3.x/run/pipe/periodic/pipe4/prototype_artificiallyReducedViscosity
nProcs : 32
Slaves : 
31
(
"visu.10658"
"visu.10659"
"visu.10660"
"visu.10661"
"visu.10662"
"visu.10663"
"visu.10664"
"visu.10666"
"visu.10667"
"visu.10668"
"visu.10670"
"visu.10672"
"visu.10673"
"visu.10676"
"visu.10677"
"visu.10679"
"visu.10680"
"visu.10683"
"visu.10684"
"visu.10685"
"visu.10686"
"visu.10687"
"visu.10688"
"visu.10689"
"visu.10690"
"visu.10691"
"visu.10692"
"visu.10694"
"visu.10695"
"visu.10696"
"visu.10697"
)

Pstream initialized with:
    floatTransfer      : 0
    nProcsSimpleSum    : 0
    commsType          : nonBlocking
    polling iterations : 0
sigFpe : Enabling floating point exception trapping (FOAM_SIGFPE).
fileModificationChecking : Monitoring run-time modified files using timeStampMaster
allowSystemOperations : Allowing user-supplied system call operations

// * * * * * * * * * * * * * * * * * * * * * * * * * * * * * * * * * * * * * //
Create time

--> FOAM Warning : 
    From function dlOpen(const fileName&, const bool)
    in file POSIX.C at line 1179
    dlopen error : /home/lmfa/hluo/LocalSoftware/OpenFOAM/hluo-2.3.x/platforms/linux64GccDPOpt/lib/libfvOptionUserConstantExplicitPGradForce.so: undefined symbol: _ZTIN4Foam2fv6optionE
--> FOAM Warning : 
    From function dlLibraryTable::open(const fileName&, const bool)
    in file db/dynamicLibrary/dlLibraryTable/dlLibraryTable.C at line 99
    could not load "libfvOptionUserConstantExplicitPGradForce.so"
Create mesh for time = 0

Time = 0
    No field phi

Time = 0.0021
    Area vector of patch inlet0[1] = (0 0 -8.9375231e-06)
    Area magnitude of patch inlet0[1] = 8.9375231e-06
    Reading surfaceScalarField phi
    Integral of phi over patch inlet0[1] = -6.3564327e-06

Time = 0.004
    Area vector of patch inlet0[1] = (0 0 -8.9375231e-06)
    Area magnitude of patch inlet0[1] = 8.9375231e-06
    Reading surfaceScalarField phi
    Integral of phi over patch inlet0[1] = -6.306419e-06

Time = 0.006
    Area vector of patch inlet0[1] = (0 0 -8.9375231e-06)
    Area magnitude of patch inlet0[1] = 8.9375231e-06
    Reading surfaceScalarField phi
    Integral of phi over patch inlet0[1] = -6.3624862e-06

Time = 0.008
    Area vector of patch inlet0[1] = (0 0 -8.9375231e-06)
    Area magnitude of patch inlet0[1] = 8.9375231e-06
    Reading surfaceScalarField phi
    Integral of phi over patch inlet0[1] = -6.3532735e-06

Time = 0.01
    Area vector of patch inlet0[1] = (0 0 -8.9375231e-06)
    Area magnitude of patch inlet0[1] = 8.9375231e-06
    Reading surfaceScalarField phi
    Integral of phi over patch inlet0[1] = -6.4288396e-06

Time = 0.02
    Area vector of patch inlet0[1] = (0 0 -8.9375231e-06)
    Area magnitude of patch inlet0[1] = 8.9375231e-06
    Reading surfaceScalarField phi
    Integral of phi over patch inlet0[1] = -6.5247462e-06

Time = 0.03
    Area vector of patch inlet0[1] = (0 0 -8.9375231e-06)
    Area magnitude of patch inlet0[1] = 8.9375231e-06
    Reading surfaceScalarField phi
    Integral of phi over patch inlet0[1] = -6.6006229e-06

Time = 0.04
    Area vector of patch inlet0[1] = (0 0 -8.9375231e-06)
    Area magnitude of patch inlet0[1] = 8.9375231e-06
    Reading surfaceScalarField phi
    Integral of phi over patch inlet0[1] = -6.8251798e-06

Time = 0.05
    Area vector of patch inlet0[1] = (0 0 -8.9375231e-06)
    Area magnitude of patch inlet0[1] = 8.9375231e-06
    Reading surfaceScalarField phi
    Integral of phi over patch inlet0[1] = -7.027825e-06

Time = 0.06
    Area vector of patch inlet0[1] = (0 0 -8.9375231e-06)
    Area magnitude of patch inlet0[1] = 8.9375231e-06
    Reading surfaceScalarField phi
    Integral of phi over patch inlet0[1] = -6.9861199e-06

Time = 0.07
    Area vector of patch inlet0[1] = (0 0 -8.9375231e-06)
    Area magnitude of patch inlet0[1] = 8.9375231e-06
    Reading surfaceScalarField phi
    Integral of phi over patch inlet0[1] = -7.1410186e-06

Time = 0.08
    Area vector of patch inlet0[1] = (0 0 -8.9375231e-06)
    Area magnitude of patch inlet0[1] = 8.9375231e-06
    Reading surfaceScalarField phi
    Integral of phi over patch inlet0[1] = -7.3123285e-06

Time = 0.09
    Area vector of patch inlet0[1] = (0 0 -8.9375231e-06)
    Area magnitude of patch inlet0[1] = 8.9375231e-06
    Reading surfaceScalarField phi
    Integral of phi over patch inlet0[1] = -7.5356693e-06

Time = 0.1
    Area vector of patch inlet0[1] = (0 0 -8.9375231e-06)
    Area magnitude of patch inlet0[1] = 8.9375231e-06
    Reading surfaceScalarField phi
    Integral of phi over patch inlet0[1] = -7.6423329e-06

Time = 0.11
    Area vector of patch inlet0[1] = (0 0 -8.9375231e-06)
    Area magnitude of patch inlet0[1] = 8.9375231e-06
    Reading surfaceScalarField phi
    Integral of phi over patch inlet0[1] = -7.4029007e-06

Time = 0.12
    Area vector of patch inlet0[1] = (0 0 -8.9375231e-06)
    Area magnitude of patch inlet0[1] = 8.9375231e-06
    Reading surfaceScalarField phi
    Integral of phi over patch inlet0[1] = -7.6077726e-06

Time = 0.13
    Area vector of patch inlet0[1] = (0 0 -8.9375231e-06)
    Area magnitude of patch inlet0[1] = 8.9375231e-06
    Reading surfaceScalarField phi
    Integral of phi over patch inlet0[1] = -7.7432373e-06

Time = 0.14
    Area vector of patch inlet0[1] = (0 0 -8.9375231e-06)
    Area magnitude of patch inlet0[1] = 8.9375231e-06
    Reading surfaceScalarField phi
    Integral of phi over patch inlet0[1] = -7.9829711e-06

Time = 0.15
    Area vector of patch inlet0[1] = (0 0 -8.9375231e-06)
    Area magnitude of patch inlet0[1] = 8.9375231e-06
    Reading surfaceScalarField phi
    Integral of phi over patch inlet0[1] = -7.9542535e-06

Time = 0.16
    Area vector of patch inlet0[1] = (0 0 -8.9375231e-06)
    Area magnitude of patch inlet0[1] = 8.9375231e-06
    Reading surfaceScalarField phi
    Integral of phi over patch inlet0[1] = -7.9066923e-06

Time = 0.17
    Area vector of patch inlet0[1] = (0 0 -8.9375231e-06)
    Area magnitude of patch inlet0[1] = 8.9375231e-06
    Reading surfaceScalarField phi
    Integral of phi over patch inlet0[1] = -7.9943088e-06

Time = 0.18
    Area vector of patch inlet0[1] = (0 0 -8.9375231e-06)
    Area magnitude of patch inlet0[1] = 8.9375231e-06
    Reading surfaceScalarField phi
    Integral of phi over patch inlet0[1] = -8.3071393e-06

Time = 0.19
    Area vector of patch inlet0[1] = (0 0 -8.9375231e-06)
    Area magnitude of patch inlet0[1] = 8.9375231e-06
    Reading surfaceScalarField phi
    Integral of phi over patch inlet0[1] = -8.3789792e-06

Time = 0.2
    Area vector of patch inlet0[1] = (0 0 -8.9375231e-06)
    Area magnitude of patch inlet0[1] = 8.9375231e-06
    Reading surfaceScalarField phi
    Integral of phi over patch inlet0[1] = -8.3089295e-06

Time = 0.21
    Area vector of patch inlet0[1] = (0 0 -8.9375231e-06)
    Area magnitude of patch inlet0[1] = 8.9375231e-06
    Reading surfaceScalarField phi
    Integral of phi over patch inlet0[1] = -8.2514315e-06

Time = 0.22
    Area vector of patch inlet0[1] = (0 0 -8.9375231e-06)
    Area magnitude of patch inlet0[1] = 8.9375231e-06
    Reading surfaceScalarField phi
    Integral of phi over patch inlet0[1] = -8.4443868e-06

Time = 0.23
    Area vector of patch inlet0[1] = (0 0 -8.9375231e-06)
    Area magnitude of patch inlet0[1] = 8.9375231e-06
    Reading surfaceScalarField phi
    Integral of phi over patch inlet0[1] = -8.6345901e-06

Time = 0.24
    Area vector of patch inlet0[1] = (0 0 -8.9375231e-06)
    Area magnitude of patch inlet0[1] = 8.9375231e-06
    Reading surfaceScalarField phi
    Integral of phi over patch inlet0[1] = -8.6454785e-06

Time = 0.25
    Area vector of patch inlet0[1] = (0 0 -8.9375231e-06)
    Area magnitude of patch inlet0[1] = 8.9375231e-06
    Reading surfaceScalarField phi
    Integral of phi over patch inlet0[1] = -8.5916759e-06

Time = 0.26
    Area vector of patch inlet0[1] = (0 0 -8.9375231e-06)
    Area magnitude of patch inlet0[1] = 8.9375231e-06
    Reading surfaceScalarField phi
    Integral of phi over patch inlet0[1] = -8.7763895e-06

Time = 0.27
    Area vector of patch inlet0[1] = (0 0 -8.9375231e-06)
    Area magnitude of patch inlet0[1] = 8.9375231e-06
    Reading surfaceScalarField phi
    Integral of phi over patch inlet0[1] = -8.9063776e-06

Time = 0.28
    Area vector of patch inlet0[1] = (0 0 -8.9375231e-06)
    Area magnitude of patch inlet0[1] = 8.9375231e-06
    Reading surfaceScalarField phi
    Integral of phi over patch inlet0[1] = -8.9905568e-06

Time = 0.29
    Area vector of patch inlet0[1] = (0 0 -8.9375231e-06)
    Area magnitude of patch inlet0[1] = 8.9375231e-06
    Reading surfaceScalarField phi
    Integral of phi over patch inlet0[1] = -8.9884626e-06

Time = 0.3
    Area vector of patch inlet0[1] = (0 0 -8.9375231e-06)
    Area magnitude of patch inlet0[1] = 8.9375231e-06
    Reading surfaceScalarField phi
    Integral of phi over patch inlet0[1] = -9.0605175e-06

Time = 0.31
    Area vector of patch inlet0[1] = (0 0 -8.9375231e-06)
    Area magnitude of patch inlet0[1] = 8.9375231e-06
    Reading surfaceScalarField phi
    Integral of phi over patch inlet0[1] = -9.1830168e-06

Time = 0.32
    Area vector of patch inlet0[1] = (0 0 -8.9375231e-06)
    Area magnitude of patch inlet0[1] = 8.9375231e-06
    Reading surfaceScalarField phi
    Integral of phi over patch inlet0[1] = -9.19512e-06

Time = 0.33
    Area vector of patch inlet0[1] = (0 0 -8.9375231e-06)
    Area magnitude of patch inlet0[1] = 8.9375231e-06
    Reading surfaceScalarField phi
    Integral of phi over patch inlet0[1] = -9.2426705e-06

Time = 0.34
    Area vector of patch inlet0[1] = (0 0 -8.9375231e-06)
    Area magnitude of patch inlet0[1] = 8.9375231e-06
    Reading surfaceScalarField phi
    Integral of phi over patch inlet0[1] = -9.3480114e-06

Time = 0.35
    Area vector of patch inlet0[1] = (0 0 -8.9375231e-06)
    Area magnitude of patch inlet0[1] = 8.9375231e-06
    Reading surfaceScalarField phi
    Integral of phi over patch inlet0[1] = -9.4428327e-06

Time = 0.36
    Area vector of patch inlet0[1] = (0 0 -8.9375231e-06)
    Area magnitude of patch inlet0[1] = 8.9375231e-06
    Reading surfaceScalarField phi
    Integral of phi over patch inlet0[1] = -9.4385057e-06

Time = 0.37
    Area vector of patch inlet0[1] = (0 0 -8.9375231e-06)
    Area magnitude of patch inlet0[1] = 8.9375231e-06
    Reading surfaceScalarField phi
    Integral of phi over patch inlet0[1] = -9.5456122e-06

Time = 0.38
    Area vector of patch inlet0[1] = (0 0 -8.9375231e-06)
    Area magnitude of patch inlet0[1] = 8.9375231e-06
    Reading surfaceScalarField phi
    Integral of phi over patch inlet0[1] = -9.5972769e-06

Time = 0.39
    Area vector of patch inlet0[1] = (0 0 -8.9375231e-06)
    Area magnitude of patch inlet0[1] = 8.9375231e-06
    Reading surfaceScalarField phi
    Integral of phi over patch inlet0[1] = -9.6320936e-06

Time = 0.4
    Area vector of patch inlet0[1] = (0 0 -8.9375231e-06)
    Area magnitude of patch inlet0[1] = 8.9375231e-06
    Reading surfaceScalarField phi
    Integral of phi over patch inlet0[1] = -9.7694578e-06

Time = 0.41
    Area vector of patch inlet0[1] = (0 0 -8.9375231e-06)
    Area magnitude of patch inlet0[1] = 8.9375231e-06
    Reading surfaceScalarField phi
    Integral of phi over patch inlet0[1] = -9.8048354e-06

Time = 0.42
    Area vector of patch inlet0[1] = (0 0 -8.9375231e-06)
    Area magnitude of patch inlet0[1] = 8.9375231e-06
    Reading surfaceScalarField phi
    Integral of phi over patch inlet0[1] = -9.8748856e-06

Time = 0.43
    Area vector of patch inlet0[1] = (0 0 -8.9375231e-06)
    Area magnitude of patch inlet0[1] = 8.9375231e-06
    Reading surfaceScalarField phi
    Integral of phi over patch inlet0[1] = -9.8839097e-06

Time = 0.44
    Area vector of patch inlet0[1] = (0 0 -8.9375231e-06)
    Area magnitude of patch inlet0[1] = 8.9375231e-06
    Reading surfaceScalarField phi
    Integral of phi over patch inlet0[1] = -9.9624095e-06

Time = 0.45
    Area vector of patch inlet0[1] = (0 0 -8.9375231e-06)
    Area magnitude of patch inlet0[1] = 8.9375231e-06
    Reading surfaceScalarField phi
    Integral of phi over patch inlet0[1] = -1.0051594e-05

Time = 0.46
    Area vector of patch inlet0[1] = (0 0 -8.9375231e-06)
    Area magnitude of patch inlet0[1] = 8.9375231e-06
    Reading surfaceScalarField phi
    Integral of phi over patch inlet0[1] = -1.0136603e-05

Time = 0.47
    Area vector of patch inlet0[1] = (0 0 -8.9375231e-06)
    Area magnitude of patch inlet0[1] = 8.9375231e-06
    Reading surfaceScalarField phi
    Integral of phi over patch inlet0[1] = -1.0154117e-05

Time = 0.48
    Area vector of patch inlet0[1] = (0 0 -8.9375231e-06)
    Area magnitude of patch inlet0[1] = 8.9375231e-06
    Reading surfaceScalarField phi
    Integral of phi over patch inlet0[1] = -1.0354045e-05

Time = 0.49
    Area vector of patch inlet0[1] = (0 0 -8.9375231e-06)
    Area magnitude of patch inlet0[1] = 8.9375231e-06
    Reading surfaceScalarField phi
    Integral of phi over patch inlet0[1] = -1.0325476e-05

Time = 0.5
    Area vector of patch inlet0[1] = (0 0 -8.9375231e-06)
    Area magnitude of patch inlet0[1] = 8.9375231e-06
    Reading surfaceScalarField phi
    Integral of phi over patch inlet0[1] = -1.0355442e-05

Time = 0.51
    Area vector of patch inlet0[1] = (0 0 -8.9375231e-06)
    Area magnitude of patch inlet0[1] = 8.9375231e-06
    Reading surfaceScalarField phi
    Integral of phi over patch inlet0[1] = -1.0423648e-05

Time = 0.52
    Area vector of patch inlet0[1] = (0 0 -8.9375231e-06)
    Area magnitude of patch inlet0[1] = 8.9375231e-06
    Reading surfaceScalarField phi
    Integral of phi over patch inlet0[1] = -1.0515248e-05

Time = 0.53
    Area vector of patch inlet0[1] = (0 0 -8.9375231e-06)
    Area magnitude of patch inlet0[1] = 8.9375231e-06
    Reading surfaceScalarField phi
    Integral of phi over patch inlet0[1] = -1.0508429e-05

Time = 0.54
    Area vector of patch inlet0[1] = (0 0 -8.9375231e-06)
    Area magnitude of patch inlet0[1] = 8.9375231e-06
    Reading surfaceScalarField phi
    Integral of phi over patch inlet0[1] = -1.0633677e-05

Time = 0.55
    Area vector of patch inlet0[1] = (0 0 -8.9375231e-06)
    Area magnitude of patch inlet0[1] = 8.9375231e-06
    Reading surfaceScalarField phi
    Integral of phi over patch inlet0[1] = -1.0733539e-05

Time = 0.56
    Area vector of patch inlet0[1] = (0 0 -8.9375231e-06)
    Area magnitude of patch inlet0[1] = 8.9375231e-06
    Reading surfaceScalarField phi
    Integral of phi over patch inlet0[1] = -1.0683932e-05

Time = 0.57
    Area vector of patch inlet0[1] = (0 0 -8.9375231e-06)
    Area magnitude of patch inlet0[1] = 8.9375231e-06
    Reading surfaceScalarField phi
    Integral of phi over patch inlet0[1] = -1.0793205e-05

Time = 0.58
    Area vector of patch inlet0[1] = (0 0 -8.9375231e-06)
    Area magnitude of patch inlet0[1] = 8.9375231e-06
    Reading surfaceScalarField phi
    Integral of phi over patch inlet0[1] = -1.0824952e-05

Time = 0.59
    Area vector of patch inlet0[1] = (0 0 -8.9375231e-06)
    Area magnitude of patch inlet0[1] = 8.9375231e-06
    Reading surfaceScalarField phi
    Integral of phi over patch inlet0[1] = -1.0841545e-05

Time = 0.6
    Area vector of patch inlet0[1] = (0 0 -8.9375231e-06)
    Area magnitude of patch inlet0[1] = 8.9375231e-06
    Reading surfaceScalarField phi
    Integral of phi over patch inlet0[1] = -1.0897813e-05

Time = 0.61
    Area vector of patch inlet0[1] = (0 0 -8.9375231e-06)
    Area magnitude of patch inlet0[1] = 8.9375231e-06
    Reading surfaceScalarField phi
    Integral of phi over patch inlet0[1] = -1.1036789e-05

Time = 0.62
    Area vector of patch inlet0[1] = (0 0 -8.9375231e-06)
    Area magnitude of patch inlet0[1] = 8.9375231e-06
    Reading surfaceScalarField phi
    Integral of phi over patch inlet0[1] = -1.1045459e-05

Time = 0.63
    Area vector of patch inlet0[1] = (0 0 -8.9375231e-06)
    Area magnitude of patch inlet0[1] = 8.9375231e-06
    Reading surfaceScalarField phi
    Integral of phi over patch inlet0[1] = -1.1112161e-05

Time = 0.64
    Area vector of patch inlet0[1] = (0 0 -8.9375231e-06)
    Area magnitude of patch inlet0[1] = 8.9375231e-06
    Reading surfaceScalarField phi
    Integral of phi over patch inlet0[1] = -1.1184326e-05

Time = 0.65
    Area vector of patch inlet0[1] = (0 0 -8.9375231e-06)
    Area magnitude of patch inlet0[1] = 8.9375231e-06
    Reading surfaceScalarField phi
    Integral of phi over patch inlet0[1] = -1.1235742e-05

Time = 0.66
    Area vector of patch inlet0[1] = (0 0 -8.9375231e-06)
    Area magnitude of patch inlet0[1] = 8.9375231e-06
    Reading surfaceScalarField phi
    Integral of phi over patch inlet0[1] = -1.1275477e-05

Time = 0.67
    Area vector of patch inlet0[1] = (0 0 -8.9375231e-06)
    Area magnitude of patch inlet0[1] = 8.9375231e-06
    Reading surfaceScalarField phi
    Integral of phi over patch inlet0[1] = -1.1331263e-05

Time = 0.68
    Area vector of patch inlet0[1] = (0 0 -8.9375231e-06)
    Area magnitude of patch inlet0[1] = 8.9375231e-06
    Reading surfaceScalarField phi
    Integral of phi over patch inlet0[1] = -1.1417212e-05

Time = 0.69
    Area vector of patch inlet0[1] = (0 0 -8.9375231e-06)
    Area magnitude of patch inlet0[1] = 8.9375231e-06
    Reading surfaceScalarField phi
    Integral of phi over patch inlet0[1] = -1.1419546e-05

Time = 0.7
    Area vector of patch inlet0[1] = (0 0 -8.9375231e-06)
    Area magnitude of patch inlet0[1] = 8.9375231e-06
    Reading surfaceScalarField phi
    Integral of phi over patch inlet0[1] = -1.146219e-05

Time = 0.71
    Area vector of patch inlet0[1] = (0 0 -8.9375231e-06)
    Area magnitude of patch inlet0[1] = 8.9375231e-06
    Reading surfaceScalarField phi
    Integral of phi over patch inlet0[1] = -1.1501024e-05

Time = 0.72
    Area vector of patch inlet0[1] = (0 0 -8.9375231e-06)
    Area magnitude of patch inlet0[1] = 8.9375231e-06
    Reading surfaceScalarField phi
    Integral of phi over patch inlet0[1] = -1.1495413e-05

Time = 0.73
    Area vector of patch inlet0[1] = (0 0 -8.9375231e-06)
    Area magnitude of patch inlet0[1] = 8.9375231e-06
    Reading surfaceScalarField phi
    Integral of phi over patch inlet0[1] = -1.1580223e-05

Time = 0.74
    Area vector of patch inlet0[1] = (0 0 -8.9375231e-06)
    Area magnitude of patch inlet0[1] = 8.9375231e-06
    Reading surfaceScalarField phi
    Integral of phi over patch inlet0[1] = -1.1664694e-05

Time = 0.75
    Area vector of patch inlet0[1] = (0 0 -8.9375231e-06)
    Area magnitude of patch inlet0[1] = 8.9375231e-06
    Reading surfaceScalarField phi
    Integral of phi over patch inlet0[1] = -1.1676364e-05

Time = 0.76
    Area vector of patch inlet0[1] = (0 0 -8.9375231e-06)
    Area magnitude of patch inlet0[1] = 8.9375231e-06
    Reading surfaceScalarField phi
    Integral of phi over patch inlet0[1] = -1.1766264e-05

Time = 0.77
    Area vector of patch inlet0[1] = (0 0 -8.9375231e-06)
    Area magnitude of patch inlet0[1] = 8.9375231e-06
    Reading surfaceScalarField phi
    Integral of phi over patch inlet0[1] = -1.1766811e-05

Time = 0.78
    Area vector of patch inlet0[1] = (0 0 -8.9375231e-06)
    Area magnitude of patch inlet0[1] = 8.9375231e-06
    Reading surfaceScalarField phi
    Integral of phi over patch inlet0[1] = -1.1840072e-05

Time = 0.79
    Area vector of patch inlet0[1] = (0 0 -8.9375231e-06)
    Area magnitude of patch inlet0[1] = 8.9375231e-06
    Reading surfaceScalarField phi
    Integral of phi over patch inlet0[1] = -1.1960005e-05

Time = 0.8
    Area vector of patch inlet0[1] = (0 0 -8.9375231e-06)
    Area magnitude of patch inlet0[1] = 8.9375231e-06
    Reading surfaceScalarField phi
    Integral of phi over patch inlet0[1] = -1.1917072e-05

Time = 0.81
    Area vector of patch inlet0[1] = (0 0 -8.9375231e-06)
    Area magnitude of patch inlet0[1] = 8.9375231e-06
    Reading surfaceScalarField phi
    Integral of phi over patch inlet0[1] = -1.1928059e-05

Time = 0.82
    Area vector of patch inlet0[1] = (0 0 -8.9375231e-06)
    Area magnitude of patch inlet0[1] = 8.9375231e-06
    Reading surfaceScalarField phi
    Integral of phi over patch inlet0[1] = -1.210441e-05

Time = 0.83
    Area vector of patch inlet0[1] = (0 0 -8.9375231e-06)
    Area magnitude of patch inlet0[1] = 8.9375231e-06
    Reading surfaceScalarField phi
    Integral of phi over patch inlet0[1] = -1.2096108e-05

Time = 0.84
    Area vector of patch inlet0[1] = (0 0 -8.9375231e-06)
    Area magnitude of patch inlet0[1] = 8.9375231e-06
    Reading surfaceScalarField phi
    Integral of phi over patch inlet0[1] = -1.2004492e-05

Time = 0.85
    Area vector of patch inlet0[1] = (0 0 -8.9375231e-06)
    Area magnitude of patch inlet0[1] = 8.9375231e-06
    Reading surfaceScalarField phi
    Integral of phi over patch inlet0[1] = -1.2147169e-05

Time = 0.86
    Area vector of patch inlet0[1] = (0 0 -8.9375231e-06)
    Area magnitude of patch inlet0[1] = 8.9375231e-06
    Reading surfaceScalarField phi
    Integral of phi over patch inlet0[1] = -1.2269774e-05

Time = 0.87
    Area vector of patch inlet0[1] = (0 0 -8.9375231e-06)
    Area magnitude of patch inlet0[1] = 8.9375231e-06
    Reading surfaceScalarField phi
    Integral of phi over patch inlet0[1] = -1.2101961e-05

Time = 0.88
    Area vector of patch inlet0[1] = (0 0 -8.9375231e-06)
    Area magnitude of patch inlet0[1] = 8.9375231e-06
    Reading surfaceScalarField phi
    Integral of phi over patch inlet0[1] = -1.2250024e-05

Time = 0.89
    Area vector of patch inlet0[1] = (0 0 -8.9375231e-06)
    Area magnitude of patch inlet0[1] = 8.9375231e-06
    Reading surfaceScalarField phi
    Integral of phi over patch inlet0[1] = -1.2331448e-05

Time = 0.9
    Area vector of patch inlet0[1] = (0 0 -8.9375231e-06)
    Area magnitude of patch inlet0[1] = 8.9375231e-06
    Reading surfaceScalarField phi
    Integral of phi over patch inlet0[1] = -1.233428e-05

Time = 0.91
    Area vector of patch inlet0[1] = (0 0 -8.9375231e-06)
    Area magnitude of patch inlet0[1] = 8.9375231e-06
    Reading surfaceScalarField phi
    Integral of phi over patch inlet0[1] = -1.2367125e-05

Time = 0.92
    Area vector of patch inlet0[1] = (0 0 -8.9375231e-06)
    Area magnitude of patch inlet0[1] = 8.9375231e-06
    Reading surfaceScalarField phi
    Integral of phi over patch inlet0[1] = -1.2457579e-05

Time = 0.93
    Area vector of patch inlet0[1] = (0 0 -8.9375231e-06)
    Area magnitude of patch inlet0[1] = 8.9375231e-06
    Reading surfaceScalarField phi
    Integral of phi over patch inlet0[1] = -1.2425646e-05

Time = 0.94
    Area vector of patch inlet0[1] = (0 0 -8.9375231e-06)
    Area magnitude of patch inlet0[1] = 8.9375231e-06
    Reading surfaceScalarField phi
    Integral of phi over patch inlet0[1] = -1.2530505e-05

Time = 0.95
    Area vector of patch inlet0[1] = (0 0 -8.9375231e-06)
    Area magnitude of patch inlet0[1] = 8.9375231e-06
    Reading surfaceScalarField phi
    Integral of phi over patch inlet0[1] = -1.2552976e-05

Time = 0.96
    Area vector of patch inlet0[1] = (0 0 -8.9375231e-06)
    Area magnitude of patch inlet0[1] = 8.9375231e-06
    Reading surfaceScalarField phi
    Integral of phi over patch inlet0[1] = -1.2482483e-05

Time = 0.97
    Area vector of patch inlet0[1] = (0 0 -8.9375231e-06)
    Area magnitude of patch inlet0[1] = 8.9375231e-06
    Reading surfaceScalarField phi
    Integral of phi over patch inlet0[1] = -1.2578879e-05

Time = 0.98
    Area vector of patch inlet0[1] = (0 0 -8.9375231e-06)
    Area magnitude of patch inlet0[1] = 8.9375231e-06
    Reading surfaceScalarField phi
    Integral of phi over patch inlet0[1] = -1.2703489e-05

Time = 0.99
    Area vector of patch inlet0[1] = (0 0 -8.9375231e-06)
    Area magnitude of patch inlet0[1] = 8.9375231e-06
    Reading surfaceScalarField phi
    Integral of phi over patch inlet0[1] = -1.2652395e-05

Time = 1
    Area vector of patch inlet0[1] = (0 0 -8.9375231e-06)
    Area magnitude of patch inlet0[1] = 8.9375231e-06
    Reading surfaceScalarField phi
    Integral of phi over patch inlet0[1] = -1.2773983e-05

Time = 1.01
    Area vector of patch inlet0[1] = (0 0 -8.9375231e-06)
    Area magnitude of patch inlet0[1] = 8.9375231e-06
    Reading surfaceScalarField phi
    Integral of phi over patch inlet0[1] = -1.2687444e-05

Time = 1.02
    Area vector of patch inlet0[1] = (0 0 -8.9375231e-06)
    Area magnitude of patch inlet0[1] = 8.9375231e-06
    Reading surfaceScalarField phi
    Integral of phi over patch inlet0[1] = -1.2651755e-05

Time = 1.03
    Area vector of patch inlet0[1] = (0 0 -8.9375231e-06)
    Area magnitude of patch inlet0[1] = 8.9375231e-06
    Reading surfaceScalarField phi
    Integral of phi over patch inlet0[1] = -1.294743e-05

Time = 1.04
    Area vector of patch inlet0[1] = (0 0 -8.9375231e-06)
    Area magnitude of patch inlet0[1] = 8.9375231e-06
    Reading surfaceScalarField phi
    Integral of phi over patch inlet0[1] = -1.2875998e-05

Time = 1.05
    Area vector of patch inlet0[1] = (0 0 -8.9375231e-06)
    Area magnitude of patch inlet0[1] = 8.9375231e-06
    Reading surfaceScalarField phi
    Integral of phi over patch inlet0[1] = -1.2798232e-05

Time = 1.06
    Area vector of patch inlet0[1] = (0 0 -8.9375231e-06)
    Area magnitude of patch inlet0[1] = 8.9375231e-06
    Reading surfaceScalarField phi
    Integral of phi over patch inlet0[1] = -1.2911236e-05

Time = 1.07
    Area vector of patch inlet0[1] = (0 0 -8.9375231e-06)
    Area magnitude of patch inlet0[1] = 8.9375231e-06
    Reading surfaceScalarField phi
    Integral of phi over patch inlet0[1] = -1.2930689e-05

Time = 1.08
    Area vector of patch inlet0[1] = (0 0 -8.9375231e-06)
    Area magnitude of patch inlet0[1] = 8.9375231e-06
    Reading surfaceScalarField phi
    Integral of phi over patch inlet0[1] = -1.2986882e-05

Time = 1.09
    Area vector of patch inlet0[1] = (0 0 -8.9375231e-06)
    Area magnitude of patch inlet0[1] = 8.9375231e-06
    Reading surfaceScalarField phi
    Integral of phi over patch inlet0[1] = -1.3053793e-05

Time = 1.1
    Area vector of patch inlet0[1] = (0 0 -8.9375231e-06)
    Area magnitude of patch inlet0[1] = 8.9375231e-06
    Reading surfaceScalarField phi
    Integral of phi over patch inlet0[1] = -1.2899544e-05

Time = 1.11
    Area vector of patch inlet0[1] = (0 0 -8.9375231e-06)
    Area magnitude of patch inlet0[1] = 8.9375231e-06
    Reading surfaceScalarField phi
    Integral of phi over patch inlet0[1] = -1.3079377e-05

Time = 1.12
    Area vector of patch inlet0[1] = (0 0 -8.9375231e-06)
    Area magnitude of patch inlet0[1] = 8.9375231e-06
    Reading surfaceScalarField phi
    Integral of phi over patch inlet0[1] = -1.3144575e-05

Time = 1.13
    Area vector of patch inlet0[1] = (0 0 -8.9375231e-06)
    Area magnitude of patch inlet0[1] = 8.9375231e-06
    Reading surfaceScalarField phi
    Integral of phi over patch inlet0[1] = -1.3047522e-05

Time = 1.14
    Area vector of patch inlet0[1] = (0 0 -8.9375231e-06)
    Area magnitude of patch inlet0[1] = 8.9375231e-06
    Reading surfaceScalarField phi
    Integral of phi over patch inlet0[1] = -1.3226415e-05

Time = 1.15
    Area vector of patch inlet0[1] = (0 0 -8.9375231e-06)
    Area magnitude of patch inlet0[1] = 8.9375231e-06
    Reading surfaceScalarField phi
    Integral of phi over patch inlet0[1] = -1.325968e-05

Time = 1.16
    Area vector of patch inlet0[1] = (0 0 -8.9375231e-06)
    Area magnitude of patch inlet0[1] = 8.9375231e-06
    Reading surfaceScalarField phi
    Integral of phi over patch inlet0[1] = -1.3241429e-05

Time = 1.17
    Area vector of patch inlet0[1] = (0 0 -8.9375231e-06)
    Area magnitude of patch inlet0[1] = 8.9375231e-06
    Reading surfaceScalarField phi
    Integral of phi over patch inlet0[1] = -1.3304028e-05

Time = 1.18
    Area vector of patch inlet0[1] = (0 0 -8.9375231e-06)
    Area magnitude of patch inlet0[1] = 8.9375231e-06
    Reading surfaceScalarField phi
    Integral of phi over patch inlet0[1] = -1.3162908e-05

Time = 1.19
    Area vector of patch inlet0[1] = (0 0 -8.9375231e-06)
    Area magnitude of patch inlet0[1] = 8.9375231e-06
    Reading surfaceScalarField phi
    Integral of phi over patch inlet0[1] = -1.3296485e-05

Time = 1.2
    Area vector of patch inlet0[1] = (0 0 -8.9375231e-06)
    Area magnitude of patch inlet0[1] = 8.9375231e-06
    Reading surfaceScalarField phi
    Integral of phi over patch inlet0[1] = -1.3453731e-05

Time = 1.21
    Area vector of patch inlet0[1] = (0 0 -8.9375231e-06)
    Area magnitude of patch inlet0[1] = 8.9375231e-06
    Reading surfaceScalarField phi
    Integral of phi over patch inlet0[1] = -1.3403449e-05

Time = 1.22
    Area vector of patch inlet0[1] = (0 0 -8.9375231e-06)
    Area magnitude of patch inlet0[1] = 8.9375231e-06
    Reading surfaceScalarField phi
    Integral of phi over patch inlet0[1] = -1.340655e-05

Time = 1.23
    Area vector of patch inlet0[1] = (0 0 -8.9375231e-06)
    Area magnitude of patch inlet0[1] = 8.9375231e-06
    Reading surfaceScalarField phi
    Integral of phi over patch inlet0[1] = -1.3347837e-05

Time = 1.24
    Area vector of patch inlet0[1] = (0 0 -8.9375231e-06)
    Area magnitude of patch inlet0[1] = 8.9375231e-06
    Reading surfaceScalarField phi
    Integral of phi over patch inlet0[1] = -1.3380176e-05

Time = 1.25
    Area vector of patch inlet0[1] = (0 0 -8.9375231e-06)
    Area magnitude of patch inlet0[1] = 8.9375231e-06
    Reading surfaceScalarField phi
    Integral of phi over patch inlet0[1] = -1.3529723e-05

Time = 1.26
    Area vector of patch inlet0[1] = (0 0 -8.9375231e-06)
    Area magnitude of patch inlet0[1] = 8.9375231e-06
    Reading surfaceScalarField phi
    Integral of phi over patch inlet0[1] = -1.3533294e-05

Time = 1.27
    Area vector of patch inlet0[1] = (0 0 -8.9375231e-06)
    Area magnitude of patch inlet0[1] = 8.9375231e-06
    Reading surfaceScalarField phi
    Integral of phi over patch inlet0[1] = -1.3443644e-05

Time = 1.28
    Area vector of patch inlet0[1] = (0 0 -8.9375231e-06)
    Area magnitude of patch inlet0[1] = 8.9375231e-06
    Reading surfaceScalarField phi
    Integral of phi over patch inlet0[1] = -1.3598487e-05

Time = 1.29
    Area vector of patch inlet0[1] = (0 0 -8.9375231e-06)
    Area magnitude of patch inlet0[1] = 8.9375231e-06
    Reading surfaceScalarField phi
    Integral of phi over patch inlet0[1] = -1.3573426e-05

Time = 1.3
    Area vector of patch inlet0[1] = (0 0 -8.9375231e-06)
    Area magnitude of patch inlet0[1] = 8.9375231e-06
    Reading surfaceScalarField phi
    Integral of phi over patch inlet0[1] = -1.3552188e-05

Time = 1.31
    Area vector of patch inlet0[1] = (0 0 -8.9375231e-06)
    Area magnitude of patch inlet0[1] = 8.9375231e-06
    Reading surfaceScalarField phi
    Integral of phi over patch inlet0[1] = -1.369797e-05

Time = 1.32
    Area vector of patch inlet0[1] = (0 0 -8.9375231e-06)
    Area magnitude of patch inlet0[1] = 8.9375231e-06
    Reading surfaceScalarField phi
    Integral of phi over patch inlet0[1] = -1.3577429e-05

Time = 1.33
    Area vector of patch inlet0[1] = (0 0 -8.9375231e-06)
    Area magnitude of patch inlet0[1] = 8.9375231e-06
    Reading surfaceScalarField phi
    Integral of phi over patch inlet0[1] = -1.3644295e-05

Time = 1.34
    Area vector of patch inlet0[1] = (0 0 -8.9375231e-06)
    Area magnitude of patch inlet0[1] = 8.9375231e-06
    Reading surfaceScalarField phi
    Integral of phi over patch inlet0[1] = -1.3764826e-05

Time = 1.35
    Area vector of patch inlet0[1] = (0 0 -8.9375231e-06)
    Area magnitude of patch inlet0[1] = 8.9375231e-06
    Reading surfaceScalarField phi
    Integral of phi over patch inlet0[1] = -1.366154e-05

Time = 1.36
    Area vector of patch inlet0[1] = (0 0 -8.9375231e-06)
    Area magnitude of patch inlet0[1] = 8.9375231e-06
    Reading surfaceScalarField phi
    Integral of phi over patch inlet0[1] = -1.3811962e-05

Time = 1.37
    Area vector of patch inlet0[1] = (0 0 -8.9375231e-06)
    Area magnitude of patch inlet0[1] = 8.9375231e-06
    Reading surfaceScalarField phi
    Integral of phi over patch inlet0[1] = -1.3646925e-05

Time = 1.38
    Area vector of patch inlet0[1] = (0 0 -8.9375231e-06)
    Area magnitude of patch inlet0[1] = 8.9375231e-06
    Reading surfaceScalarField phi
    Integral of phi over patch inlet0[1] = -1.3708964e-05

Time = 1.39
    Area vector of patch inlet0[1] = (0 0 -8.9375231e-06)
    Area magnitude of patch inlet0[1] = 8.9375231e-06
    Reading surfaceScalarField phi
    Integral of phi over patch inlet0[1] = -1.3845309e-05

Time = 1.4
    Area vector of patch inlet0[1] = (0 0 -8.9375231e-06)
    Area magnitude of patch inlet0[1] = 8.9375231e-06
    Reading surfaceScalarField phi
    Integral of phi over patch inlet0[1] = -1.378022e-05

Time = 1.41
    Area vector of patch inlet0[1] = (0 0 -8.9375231e-06)
    Area magnitude of patch inlet0[1] = 8.9375231e-06
    Reading surfaceScalarField phi
    Integral of phi over patch inlet0[1] = -1.3898852e-05

Time = 1.42
    Area vector of patch inlet0[1] = (0 0 -8.9375231e-06)
    Area magnitude of patch inlet0[1] = 8.9375231e-06
    Reading surfaceScalarField phi
    Integral of phi over patch inlet0[1] = -1.3899174e-05

Time = 1.43
    Area vector of patch inlet0[1] = (0 0 -8.9375231e-06)
    Area magnitude of patch inlet0[1] = 8.9375231e-06
    Reading surfaceScalarField phi
    Integral of phi over patch inlet0[1] = -1.3783835e-05

Time = 1.44
    Area vector of patch inlet0[1] = (0 0 -8.9375231e-06)
    Area magnitude of patch inlet0[1] = 8.9375231e-06
    Reading surfaceScalarField phi
    Integral of phi over patch inlet0[1] = -1.4005333e-05

Time = 1.45
    Area vector of patch inlet0[1] = (0 0 -8.9375231e-06)
    Area magnitude of patch inlet0[1] = 8.9375231e-06
    Reading surfaceScalarField phi
    Integral of phi over patch inlet0[1] = -1.3900815e-05

Time = 1.46
    Area vector of patch inlet0[1] = (0 0 -8.9375231e-06)
    Area magnitude of patch inlet0[1] = 8.9375231e-06
    Reading surfaceScalarField phi
    Integral of phi over patch inlet0[1] = -1.3824666e-05

Time = 1.47
    Area vector of patch inlet0[1] = (0 0 -8.9375231e-06)
    Area magnitude of patch inlet0[1] = 8.9375231e-06
    Reading surfaceScalarField phi
    Integral of phi over patch inlet0[1] = -1.3974616e-05

Time = 1.48
    Area vector of patch inlet0[1] = (0 0 -8.9375231e-06)
    Area magnitude of patch inlet0[1] = 8.9375231e-06
    Reading surfaceScalarField phi
    Integral of phi over patch inlet0[1] = -1.389864e-05

Time = 1.49
    Area vector of patch inlet0[1] = (0 0 -8.9375231e-06)
    Area magnitude of patch inlet0[1] = 8.9375231e-06
    Reading surfaceScalarField phi
    Integral of phi over patch inlet0[1] = -1.4007601e-05

Time = 1.5
    Area vector of patch inlet0[1] = (0 0 -8.9375231e-06)
    Area magnitude of patch inlet0[1] = 8.9375231e-06
    Reading surfaceScalarField phi
    Integral of phi over patch inlet0[1] = -1.3997942e-05

Time = 1.51
    Area vector of patch inlet0[1] = (0 0 -8.9375231e-06)
    Area magnitude of patch inlet0[1] = 8.9375231e-06
    Reading surfaceScalarField phi
    Integral of phi over patch inlet0[1] = -1.3926623e-05

Time = 1.52
    Area vector of patch inlet0[1] = (0 0 -8.9375231e-06)
    Area magnitude of patch inlet0[1] = 8.9375231e-06
    Reading surfaceScalarField phi
    Integral of phi over patch inlet0[1] = -1.4040115e-05

Time = 1.53
    Area vector of patch inlet0[1] = (0 0 -8.9375231e-06)
    Area magnitude of patch inlet0[1] = 8.9375231e-06
    Reading surfaceScalarField phi
    Integral of phi over patch inlet0[1] = -1.393281e-05

Time = 1.54
    Area vector of patch inlet0[1] = (0 0 -8.9375231e-06)
    Area magnitude of patch inlet0[1] = 8.9375231e-06
    Reading surfaceScalarField phi
    Integral of phi over patch inlet0[1] = -1.4085839e-05

Time = 1.55
    Area vector of patch inlet0[1] = (0 0 -8.9375231e-06)
    Area magnitude of patch inlet0[1] = 8.9375231e-06
    Reading surfaceScalarField phi
    Integral of phi over patch inlet0[1] = -1.4053627e-05

Time = 1.56
    Area vector of patch inlet0[1] = (0 0 -8.9375231e-06)
    Area magnitude of patch inlet0[1] = 8.9375231e-06
    Reading surfaceScalarField phi
    Integral of phi over patch inlet0[1] = -1.3920969e-05

Time = 1.57
    Area vector of patch inlet0[1] = (0 0 -8.9375231e-06)
    Area magnitude of patch inlet0[1] = 8.9375231e-06
    Reading surfaceScalarField phi
    Integral of phi over patch inlet0[1] = -1.4193113e-05

Time = 1.58
    Area vector of patch inlet0[1] = (0 0 -8.9375231e-06)
    Area magnitude of patch inlet0[1] = 8.9375231e-06
    Reading surfaceScalarField phi
    Integral of phi over patch inlet0[1] = -1.3986783e-05

Time = 1.59
    Area vector of patch inlet0[1] = (0 0 -8.9375231e-06)
    Area magnitude of patch inlet0[1] = 8.9375231e-06
    Reading surfaceScalarField phi
    Integral of phi over patch inlet0[1] = -1.4065569e-05

Time = 1.6
    Area vector of patch inlet0[1] = (0 0 -8.9375231e-06)
    Area magnitude of patch inlet0[1] = 8.9375231e-06
    Reading surfaceScalarField phi
    Integral of phi over patch inlet0[1] = -1.4128326e-05

Time = 1.61
    Area vector of patch inlet0[1] = (0 0 -8.9375231e-06)
    Area magnitude of patch inlet0[1] = 8.9375231e-06
    Reading surfaceScalarField phi
    Integral of phi over patch inlet0[1] = -1.4109286e-05

Time = 1.62
    Area vector of patch inlet0[1] = (0 0 -8.9375231e-06)
    Area magnitude of patch inlet0[1] = 8.9375231e-06
    Reading surfaceScalarField phi
    Integral of phi over patch inlet0[1] = -1.4224413e-05

Time = 1.63
    Area vector of patch inlet0[1] = (0 0 -8.9375231e-06)
    Area magnitude of patch inlet0[1] = 8.9375231e-06
    Reading surfaceScalarField phi
    Integral of phi over patch inlet0[1] = -1.4123137e-05

Time = 1.64
    Area vector of patch inlet0[1] = (0 0 -8.9375231e-06)
    Area magnitude of patch inlet0[1] = 8.9375231e-06
    Reading surfaceScalarField phi
    Integral of phi over patch inlet0[1] = -1.4226033e-05

Time = 1.65
    Area vector of patch inlet0[1] = (0 0 -8.9375231e-06)
    Area magnitude of patch inlet0[1] = 8.9375231e-06
    Reading surfaceScalarField phi
    Integral of phi over patch inlet0[1] = -1.4087401e-05

Time = 1.66
    Area vector of patch inlet0[1] = (0 0 -8.9375231e-06)
    Area magnitude of patch inlet0[1] = 8.9375231e-06
    Reading surfaceScalarField phi
    Integral of phi over patch inlet0[1] = -1.4235204e-05

Time = 1.67
    Area vector of patch inlet0[1] = (0 0 -8.9375231e-06)
    Area magnitude of patch inlet0[1] = 8.9375231e-06
    Reading surfaceScalarField phi
    Integral of phi over patch inlet0[1] = -1.4382603e-05

Time = 1.68
    Area vector of patch inlet0[1] = (0 0 -8.9375231e-06)
    Area magnitude of patch inlet0[1] = 8.9375231e-06
    Reading surfaceScalarField phi
    Integral of phi over patch inlet0[1] = -1.4212214e-05

Time = 1.69
    Area vector of patch inlet0[1] = (0 0 -8.9375231e-06)
    Area magnitude of patch inlet0[1] = 8.9375231e-06
    Reading surfaceScalarField phi
    Integral of phi over patch inlet0[1] = -1.429215e-05

Time = 1.7
    Area vector of patch inlet0[1] = (0 0 -8.9375231e-06)
    Area magnitude of patch inlet0[1] = 8.9375231e-06
    Reading surfaceScalarField phi
    Integral of phi over patch inlet0[1] = -1.4278268e-05

Time = 1.71
    Area vector of patch inlet0[1] = (0 0 -8.9375231e-06)
    Area magnitude of patch inlet0[1] = 8.9375231e-06
    Reading surfaceScalarField phi
    Integral of phi over patch inlet0[1] = -1.4212545e-05

Time = 1.72
    Area vector of patch inlet0[1] = (0 0 -8.9375231e-06)
    Area magnitude of patch inlet0[1] = 8.9375231e-06
    Reading surfaceScalarField phi
    Integral of phi over patch inlet0[1] = -1.4419754e-05

Time = 1.73
    Area vector of patch inlet0[1] = (0 0 -8.9375231e-06)
    Area magnitude of patch inlet0[1] = 8.9375231e-06
    Reading surfaceScalarField phi
    Integral of phi over patch inlet0[1] = -1.4301261e-05

Time = 1.74
    Area vector of patch inlet0[1] = (0 0 -8.9375231e-06)
    Area magnitude of patch inlet0[1] = 8.9375231e-06
    Reading surfaceScalarField phi
    Integral of phi over patch inlet0[1] = -1.4334392e-05

Time = 1.75
    Area vector of patch inlet0[1] = (0 0 -8.9375231e-06)
    Area magnitude of patch inlet0[1] = 8.9375231e-06
    Reading surfaceScalarField phi
    Integral of phi over patch inlet0[1] = -1.4270436e-05

Time = 1.76
    Area vector of patch inlet0[1] = (0 0 -8.9375231e-06)
    Area magnitude of patch inlet0[1] = 8.9375231e-06
    Reading surfaceScalarField phi
    Integral of phi over patch inlet0[1] = -1.4466898e-05

Time = 1.77
    Area vector of patch inlet0[1] = (0 0 -8.9375231e-06)
    Area magnitude of patch inlet0[1] = 8.9375231e-06
    Reading surfaceScalarField phi
    Integral of phi over patch inlet0[1] = -1.4430095e-05

Time = 1.78
    Area vector of patch inlet0[1] = (0 0 -8.9375231e-06)
    Area magnitude of patch inlet0[1] = 8.9375231e-06
    Reading surfaceScalarField phi
    Integral of phi over patch inlet0[1] = -1.4366291e-05

Time = 1.79
    Area vector of patch inlet0[1] = (0 0 -8.9375231e-06)
    Area magnitude of patch inlet0[1] = 8.9375231e-06
    Reading surfaceScalarField phi
    Integral of phi over patch inlet0[1] = -1.4595885e-05

Time = 1.8
    Area vector of patch inlet0[1] = (0 0 -8.9375231e-06)
    Area magnitude of patch inlet0[1] = 8.9375231e-06
    Reading surfaceScalarField phi
    Integral of phi over patch inlet0[1] = -1.4395711e-05

Time = 1.81
    Area vector of patch inlet0[1] = (0 0 -8.9375231e-06)
    Area magnitude of patch inlet0[1] = 8.9375231e-06
    Reading surfaceScalarField phi
    Integral of phi over patch inlet0[1] = -1.4456235e-05

Time = 1.82
    Area vector of patch inlet0[1] = (0 0 -8.9375231e-06)
    Area magnitude of patch inlet0[1] = 8.9375231e-06
    Reading surfaceScalarField phi
    Integral of phi over patch inlet0[1] = -1.4571915e-05

Time = 1.83
    Area vector of patch inlet0[1] = (0 0 -8.9375231e-06)
    Area magnitude of patch inlet0[1] = 8.9375231e-06
    Reading surfaceScalarField phi
    Integral of phi over patch inlet0[1] = -1.4489736e-05

Time = 1.84
    Area vector of patch inlet0[1] = (0 0 -8.9375231e-06)
    Area magnitude of patch inlet0[1] = 8.9375231e-06
    Reading surfaceScalarField phi
    Integral of phi over patch inlet0[1] = -1.4536702e-05

Time = 1.85
    Area vector of patch inlet0[1] = (0 0 -8.9375231e-06)
    Area magnitude of patch inlet0[1] = 8.9375231e-06
    Reading surfaceScalarField phi
    Integral of phi over patch inlet0[1] = -1.4517868e-05

Time = 1.86
    Area vector of patch inlet0[1] = (0 0 -8.9375231e-06)
    Area magnitude of patch inlet0[1] = 8.9375231e-06
    Reading surfaceScalarField phi
    Integral of phi over patch inlet0[1] = -1.4485397e-05

Time = 1.87
    Area vector of patch inlet0[1] = (0 0 -8.9375231e-06)
    Area magnitude of patch inlet0[1] = 8.9375231e-06
    Reading surfaceScalarField phi
    Integral of phi over patch inlet0[1] = -1.4571483e-05

Time = 1.88
    Area vector of patch inlet0[1] = (0 0 -8.9375231e-06)
    Area magnitude of patch inlet0[1] = 8.9375231e-06
    Reading surfaceScalarField phi
    Integral of phi over patch inlet0[1] = -1.4607143e-05

Time = 1.89
    Area vector of patch inlet0[1] = (0 0 -8.9375231e-06)
    Area magnitude of patch inlet0[1] = 8.9375231e-06
    Reading surfaceScalarField phi
    Integral of phi over patch inlet0[1] = -1.4559143e-05

Time = 1.9
    Area vector of patch inlet0[1] = (0 0 -8.9375231e-06)
    Area magnitude of patch inlet0[1] = 8.9375231e-06
    Reading surfaceScalarField phi
    Integral of phi over patch inlet0[1] = -1.4603546e-05

Time = 1.91
    Area vector of patch inlet0[1] = (0 0 -8.9375231e-06)
    Area magnitude of patch inlet0[1] = 8.9375231e-06
    Reading surfaceScalarField phi
    Integral of phi over patch inlet0[1] = -1.4520609e-05

Time = 1.92
    Area vector of patch inlet0[1] = (0 0 -8.9375231e-06)
    Area magnitude of patch inlet0[1] = 8.9375231e-06
    Reading surfaceScalarField phi
    Integral of phi over patch inlet0[1] = -1.4676174e-05

Time = 1.93
    Area vector of patch inlet0[1] = (0 0 -8.9375231e-06)
    Area magnitude of patch inlet0[1] = 8.9375231e-06
    Reading surfaceScalarField phi
    Integral of phi over patch inlet0[1] = -1.4669038e-05

Time = 1.94
    Area vector of patch inlet0[1] = (0 0 -8.9375231e-06)
    Area magnitude of patch inlet0[1] = 8.9375231e-06
    Reading surfaceScalarField phi
    Integral of phi over patch inlet0[1] = -1.4781754e-05

Time = 1.95
    Area vector of patch inlet0[1] = (0 0 -8.9375231e-06)
    Area magnitude of patch inlet0[1] = 8.9375231e-06
    Reading surfaceScalarField phi
    Integral of phi over patch inlet0[1] = -1.4650141e-05

Time = 1.96
    Area vector of patch inlet0[1] = (0 0 -8.9375231e-06)
    Area magnitude of patch inlet0[1] = 8.9375231e-06
    Reading surfaceScalarField phi
    Integral of phi over patch inlet0[1] = -1.4637104e-05

Time = 1.97
    Area vector of patch inlet0[1] = (0 0 -8.9375231e-06)
    Area magnitude of patch inlet0[1] = 8.9375231e-06
    Reading surfaceScalarField phi
    Integral of phi over patch inlet0[1] = -1.4762816e-05

Time = 1.98
    Area vector of patch inlet0[1] = (0 0 -8.9375231e-06)
    Area magnitude of patch inlet0[1] = 8.9375231e-06
    Reading surfaceScalarField phi
    Integral of phi over patch inlet0[1] = -1.4730178e-05

Time = 1.99
    Area vector of patch inlet0[1] = (0 0 -8.9375231e-06)
    Area magnitude of patch inlet0[1] = 8.9375231e-06
    Reading surfaceScalarField phi
    Integral of phi over patch inlet0[1] = -1.4758344e-05

Time = 2
    Area vector of patch inlet0[1] = (0 0 -8.9375231e-06)
    Area magnitude of patch inlet0[1] = 8.9375231e-06
    Reading surfaceScalarField phi
    Integral of phi over patch inlet0[1] = -1.4733576e-05

Time = 2.01
    Area vector of patch inlet0[1] = (0 0 -8.9375231e-06)
    Area magnitude of patch inlet0[1] = 8.9375231e-06
    Reading surfaceScalarField phi
    Integral of phi over patch inlet0[1] = -1.4797638e-05

Time = 2.02
    Area vector of patch inlet0[1] = (0 0 -8.9375231e-06)
    Area magnitude of patch inlet0[1] = 8.9375231e-06
    Reading surfaceScalarField phi
    Integral of phi over patch inlet0[1] = -1.4916243e-05

Time = 2.03
    Area vector of patch inlet0[1] = (0 0 -8.9375231e-06)
    Area magnitude of patch inlet0[1] = 8.9375231e-06
    Reading surfaceScalarField phi
    Integral of phi over patch inlet0[1] = -1.4898258e-05

Time = 2.04
    Area vector of patch inlet0[1] = (0 0 -8.9375231e-06)
    Area magnitude of patch inlet0[1] = 8.9375231e-06
    Reading surfaceScalarField phi
    Integral of phi over patch inlet0[1] = -1.4861988e-05

Time = 2.05
    Area vector of patch inlet0[1] = (0 0 -8.9375231e-06)
    Area magnitude of patch inlet0[1] = 8.9375231e-06
    Reading surfaceScalarField phi
    Integral of phi over patch inlet0[1] = -1.4933563e-05

Time = 2.06
    Area vector of patch inlet0[1] = (0 0 -8.9375231e-06)
    Area magnitude of patch inlet0[1] = 8.9375231e-06
    Reading surfaceScalarField phi
    Integral of phi over patch inlet0[1] = -1.4802432e-05

Time = 2.07
    Area vector of patch inlet0[1] = (0 0 -8.9375231e-06)
    Area magnitude of patch inlet0[1] = 8.9375231e-06
    Reading surfaceScalarField phi
    Integral of phi over patch inlet0[1] = -1.4844038e-05

Time = 2.08
    Area vector of patch inlet0[1] = (0 0 -8.9375231e-06)
    Area magnitude of patch inlet0[1] = 8.9375231e-06
    Reading surfaceScalarField phi
    Integral of phi over patch inlet0[1] = -1.4833871e-05

Time = 2.09
    Area vector of patch inlet0[1] = (0 0 -8.9375231e-06)
    Area magnitude of patch inlet0[1] = 8.9375231e-06
    Reading surfaceScalarField phi
    Integral of phi over patch inlet0[1] = -1.4857612e-05

Time = 2.1
    Area vector of patch inlet0[1] = (0 0 -8.9375231e-06)
    Area magnitude of patch inlet0[1] = 8.9375231e-06
    Reading surfaceScalarField phi
    Integral of phi over patch inlet0[1] = -1.4853714e-05

Time = 2.11
    Area vector of patch inlet0[1] = (0 0 -8.9375231e-06)
    Area magnitude of patch inlet0[1] = 8.9375231e-06
    Reading surfaceScalarField phi
    Integral of phi over patch inlet0[1] = -1.4923766e-05

Time = 2.12
    Area vector of patch inlet0[1] = (0 0 -8.9375231e-06)
    Area magnitude of patch inlet0[1] = 8.9375231e-06
    Reading surfaceScalarField phi
    Integral of phi over patch inlet0[1] = -1.4918588e-05

Time = 2.13
    Area vector of patch inlet0[1] = (0 0 -8.9375231e-06)
    Area magnitude of patch inlet0[1] = 8.9375231e-06
    Reading surfaceScalarField phi
    Integral of phi over patch inlet0[1] = -1.4836572e-05

Time = 2.14
    Area vector of patch inlet0[1] = (0 0 -8.9375231e-06)
    Area magnitude of patch inlet0[1] = 8.9375231e-06
    Reading surfaceScalarField phi
    Integral of phi over patch inlet0[1] = -1.4926339e-05

Time = 2.15
    Area vector of patch inlet0[1] = (0 0 -8.9375231e-06)
    Area magnitude of patch inlet0[1] = 8.9375231e-06
    Reading surfaceScalarField phi
    Integral of phi over patch inlet0[1] = -1.4922979e-05

Time = 2.16
    Area vector of patch inlet0[1] = (0 0 -8.9375231e-06)
    Area magnitude of patch inlet0[1] = 8.9375231e-06
    Reading surfaceScalarField phi
    Integral of phi over patch inlet0[1] = -1.492146e-05

Time = 2.17
    Area vector of patch inlet0[1] = (0 0 -8.9375231e-06)
    Area magnitude of patch inlet0[1] = 8.9375231e-06
    Reading surfaceScalarField phi
    Integral of phi over patch inlet0[1] = -1.5106154e-05

Time = 2.18
    Area vector of patch inlet0[1] = (0 0 -8.9375231e-06)
    Area magnitude of patch inlet0[1] = 8.9375231e-06
    Reading surfaceScalarField phi
    Integral of phi over patch inlet0[1] = -1.4892255e-05

Time = 2.19
    Area vector of patch inlet0[1] = (0 0 -8.9375231e-06)
    Area magnitude of patch inlet0[1] = 8.9375231e-06
    Reading surfaceScalarField phi
    Integral of phi over patch inlet0[1] = -1.5004093e-05

Time = 2.2
    Area vector of patch inlet0[1] = (0 0 -8.9375231e-06)
    Area magnitude of patch inlet0[1] = 8.9375231e-06
    Reading surfaceScalarField phi
    Integral of phi over patch inlet0[1] = -1.4897119e-05

Time = 2.21
    Area vector of patch inlet0[1] = (0 0 -8.9375231e-06)
    Area magnitude of patch inlet0[1] = 8.9375231e-06
    Reading surfaceScalarField phi
    Integral of phi over patch inlet0[1] = -1.4949169e-05

Time = 2.22
    Area vector of patch inlet0[1] = (0 0 -8.9375231e-06)
    Area magnitude of patch inlet0[1] = 8.9375231e-06
    Reading surfaceScalarField phi
    Integral of phi over patch inlet0[1] = -1.5059044e-05

Time = 2.23
    Area vector of patch inlet0[1] = (0 0 -8.9375231e-06)
    Area magnitude of patch inlet0[1] = 8.9375231e-06
    Reading surfaceScalarField phi
    Integral of phi over patch inlet0[1] = -1.5036556e-05

Time = 2.24
    Area vector of patch inlet0[1] = (0 0 -8.9375231e-06)
    Area magnitude of patch inlet0[1] = 8.9375231e-06
    Reading surfaceScalarField phi
    Integral of phi over patch inlet0[1] = -1.5012476e-05

Time = 2.25
    Area vector of patch inlet0[1] = (0 0 -8.9375231e-06)
    Area magnitude of patch inlet0[1] = 8.9375231e-06
    Reading surfaceScalarField phi
    Integral of phi over patch inlet0[1] = -1.4941708e-05

Time = 2.26
    Area vector of patch inlet0[1] = (0 0 -8.9375231e-06)
    Area magnitude of patch inlet0[1] = 8.9375231e-06
    Reading surfaceScalarField phi
    Integral of phi over patch inlet0[1] = -1.5044991e-05

Time = 2.27
    Area vector of patch inlet0[1] = (0 0 -8.9375231e-06)
    Area magnitude of patch inlet0[1] = 8.9375231e-06
    Reading surfaceScalarField phi
    Integral of phi over patch inlet0[1] = -1.4890266e-05

Time = 2.28
    Area vector of patch inlet0[1] = (0 0 -8.9375231e-06)
    Area magnitude of patch inlet0[1] = 8.9375231e-06
    Reading surfaceScalarField phi
    Integral of phi over patch inlet0[1] = -1.5095528e-05

Time = 2.29
    Area vector of patch inlet0[1] = (0 0 -8.9375231e-06)
    Area magnitude of patch inlet0[1] = 8.9375231e-06
    Reading surfaceScalarField phi
    Integral of phi over patch inlet0[1] = -1.4987534e-05

Time = 2.3
    Area vector of patch inlet0[1] = (0 0 -8.9375231e-06)
    Area magnitude of patch inlet0[1] = 8.9375231e-06
    Reading surfaceScalarField phi
    Integral of phi over patch inlet0[1] = -1.5114369e-05

Time = 2.31
    Area vector of patch inlet0[1] = (0 0 -8.9375231e-06)
    Area magnitude of patch inlet0[1] = 8.9375231e-06
    Reading surfaceScalarField phi
    Integral of phi over patch inlet0[1] = -1.5035043e-05

Time = 2.32
    Area vector of patch inlet0[1] = (0 0 -8.9375231e-06)
    Area magnitude of patch inlet0[1] = 8.9375231e-06
    Reading surfaceScalarField phi
    Integral of phi over patch inlet0[1] = -1.5065523e-05

Time = 2.33
    Area vector of patch inlet0[1] = (0 0 -8.9375231e-06)
    Area magnitude of patch inlet0[1] = 8.9375231e-06
    Reading surfaceScalarField phi
    Integral of phi over patch inlet0[1] = -1.5176715e-05

Time = 2.34
    Area vector of patch inlet0[1] = (0 0 -8.9375231e-06)
    Area magnitude of patch inlet0[1] = 8.9375231e-06
    Reading surfaceScalarField phi
    Integral of phi over patch inlet0[1] = -1.5036061e-05

Time = 2.35
    Area vector of patch inlet0[1] = (0 0 -8.9375231e-06)
    Area magnitude of patch inlet0[1] = 8.9375231e-06
    Reading surfaceScalarField phi
    Integral of phi over patch inlet0[1] = -1.5184677e-05

Time = 2.36
    Area vector of patch inlet0[1] = (0 0 -8.9375231e-06)
    Area magnitude of patch inlet0[1] = 8.9375231e-06
    Reading surfaceScalarField phi
    Integral of phi over patch inlet0[1] = -1.4944001e-05

Time = 2.37
    Area vector of patch inlet0[1] = (0 0 -8.9375231e-06)
    Area magnitude of patch inlet0[1] = 8.9375231e-06
    Reading surfaceScalarField phi
    Integral of phi over patch inlet0[1] = -1.5140914e-05

Time = 2.38
    Area vector of patch inlet0[1] = (0 0 -8.9375231e-06)
    Area magnitude of patch inlet0[1] = 8.9375231e-06
    Reading surfaceScalarField phi
    Integral of phi over patch inlet0[1] = -1.5143206e-05

Time = 2.39
    Area vector of patch inlet0[1] = (0 0 -8.9375231e-06)
    Area magnitude of patch inlet0[1] = 8.9375231e-06
    Reading surfaceScalarField phi
    Integral of phi over patch inlet0[1] = -1.5143145e-05

Time = 2.4
    Area vector of patch inlet0[1] = (0 0 -8.9375231e-06)
    Area magnitude of patch inlet0[1] = 8.9375231e-06
    Reading surfaceScalarField phi
    Integral of phi over patch inlet0[1] = -1.5174316e-05

Time = 2.41
    Area vector of patch inlet0[1] = (0 0 -8.9375231e-06)
    Area magnitude of patch inlet0[1] = 8.9375231e-06
    Reading surfaceScalarField phi
    Integral of phi over patch inlet0[1] = -1.5112081e-05

Time = 2.42
    Area vector of patch inlet0[1] = (0 0 -8.9375231e-06)
    Area magnitude of patch inlet0[1] = 8.9375231e-06
    Reading surfaceScalarField phi
    Integral of phi over patch inlet0[1] = -1.5081707e-05

Time = 2.43
    Area vector of patch inlet0[1] = (0 0 -8.9375231e-06)
    Area magnitude of patch inlet0[1] = 8.9375231e-06
    Reading surfaceScalarField phi
    Integral of phi over patch inlet0[1] = -1.5019878e-05

Time = 2.44
    Area vector of patch inlet0[1] = (0 0 -8.9375231e-06)
    Area magnitude of patch inlet0[1] = 8.9375231e-06
    Reading surfaceScalarField phi
    Integral of phi over patch inlet0[1] = -1.5130547e-05

Time = 2.45
    Area vector of patch inlet0[1] = (0 0 -8.9375231e-06)
    Area magnitude of patch inlet0[1] = 8.9375231e-06
    Reading surfaceScalarField phi
    Integral of phi over patch inlet0[1] = -1.5081395e-05

Time = 2.46
    Area vector of patch inlet0[1] = (0 0 -8.9375231e-06)
    Area magnitude of patch inlet0[1] = 8.9375231e-06
    Reading surfaceScalarField phi
    Integral of phi over patch inlet0[1] = -1.5250366e-05

Time = 2.47
    Area vector of patch inlet0[1] = (0 0 -8.9375231e-06)
    Area magnitude of patch inlet0[1] = 8.9375231e-06
    Reading surfaceScalarField phi
    Integral of phi over patch inlet0[1] = -1.5247278e-05

Time = 2.48
    Area vector of patch inlet0[1] = (0 0 -8.9375231e-06)
    Area magnitude of patch inlet0[1] = 8.9375231e-06
    Reading surfaceScalarField phi
    Integral of phi over patch inlet0[1] = -1.5339249e-05

Time = 2.49
    Area vector of patch inlet0[1] = (0 0 -8.9375231e-06)
    Area magnitude of patch inlet0[1] = 8.9375231e-06
    Reading surfaceScalarField phi
    Integral of phi over patch inlet0[1] = -1.5283007e-05

Time = 2.5
    Area vector of patch inlet0[1] = (0 0 -8.9375231e-06)
    Area magnitude of patch inlet0[1] = 8.9375231e-06
    Reading surfaceScalarField phi
    Integral of phi over patch inlet0[1] = -1.5155646e-05

Time = 2.51
    Area vector of patch inlet0[1] = (0 0 -8.9375231e-06)
    Area magnitude of patch inlet0[1] = 8.9375231e-06
    Reading surfaceScalarField phi
    Integral of phi over patch inlet0[1] = -1.5136935e-05

Time = 2.52
    Area vector of patch inlet0[1] = (0 0 -8.9375231e-06)
    Area magnitude of patch inlet0[1] = 8.9375231e-06
    Reading surfaceScalarField phi
    Integral of phi over patch inlet0[1] = -1.5238596e-05

Time = 2.53
    Area vector of patch inlet0[1] = (0 0 -8.9375231e-06)
    Area magnitude of patch inlet0[1] = 8.9375231e-06
    Reading surfaceScalarField phi
    Integral of phi over patch inlet0[1] = -1.514277e-05

Time = 2.54
    Area vector of patch inlet0[1] = (0 0 -8.9375231e-06)
    Area magnitude of patch inlet0[1] = 8.9375231e-06
    Reading surfaceScalarField phi
    Integral of phi over patch inlet0[1] = -1.5302144e-05

Time = 2.55
    Area vector of patch inlet0[1] = (0 0 -8.9375231e-06)
    Area magnitude of patch inlet0[1] = 8.9375231e-06
    Reading surfaceScalarField phi
    Integral of phi over patch inlet0[1] = -1.5257356e-05

Time = 2.56
    Area vector of patch inlet0[1] = (0 0 -8.9375231e-06)
    Area magnitude of patch inlet0[1] = 8.9375231e-06
    Reading surfaceScalarField phi
    Integral of phi over patch inlet0[1] = -1.5210454e-05

Time = 2.57
    Area vector of patch inlet0[1] = (0 0 -8.9375231e-06)
    Area magnitude of patch inlet0[1] = 8.9375231e-06
    Reading surfaceScalarField phi
    Integral of phi over patch inlet0[1] = -1.5322986e-05

Time = 2.58
    Area vector of patch inlet0[1] = (0 0 -8.9375231e-06)
    Area magnitude of patch inlet0[1] = 8.9375231e-06
    Reading surfaceScalarField phi
    Integral of phi over patch inlet0[1] = -1.5218214e-05

Time = 2.59
    Area vector of patch inlet0[1] = (0 0 -8.9375231e-06)
    Area magnitude of patch inlet0[1] = 8.9375231e-06
    Reading surfaceScalarField phi
    Integral of phi over patch inlet0[1] = -1.5340933e-05

Time = 2.6
    Area vector of patch inlet0[1] = (0 0 -8.9375231e-06)
    Area magnitude of patch inlet0[1] = 8.9375231e-06
    Reading surfaceScalarField phi
    Integral of phi over patch inlet0[1] = -1.5186979e-05

Time = 2.61
    Area vector of patch inlet0[1] = (0 0 -8.9375231e-06)
    Area magnitude of patch inlet0[1] = 8.9375231e-06
    Reading surfaceScalarField phi
    Integral of phi over patch inlet0[1] = -1.5295649e-05

Time = 2.62
    Area vector of patch inlet0[1] = (0 0 -8.9375231e-06)
    Area magnitude of patch inlet0[1] = 8.9375231e-06
    Reading surfaceScalarField phi
    Integral of phi over patch inlet0[1] = -1.5335309e-05

Time = 2.63
    Area vector of patch inlet0[1] = (0 0 -8.9375231e-06)
    Area magnitude of patch inlet0[1] = 8.9375231e-06
    Reading surfaceScalarField phi
    Integral of phi over patch inlet0[1] = -1.5333132e-05

Time = 2.64
    Area vector of patch inlet0[1] = (0 0 -8.9375231e-06)
    Area magnitude of patch inlet0[1] = 8.9375231e-06
    Reading surfaceScalarField phi
    Integral of phi over patch inlet0[1] = -1.5221541e-05

Time = 2.65
    Area vector of patch inlet0[1] = (0 0 -8.9375231e-06)
    Area magnitude of patch inlet0[1] = 8.9375231e-06
    Reading surfaceScalarField phi
    Integral of phi over patch inlet0[1] = -1.5275995e-05

Time = 2.66
    Area vector of patch inlet0[1] = (0 0 -8.9375231e-06)
    Area magnitude of patch inlet0[1] = 8.9375231e-06
    Reading surfaceScalarField phi
    Integral of phi over patch inlet0[1] = -1.5257167e-05

Time = 2.67
    Area vector of patch inlet0[1] = (0 0 -8.9375231e-06)
    Area magnitude of patch inlet0[1] = 8.9375231e-06
    Reading surfaceScalarField phi
    Integral of phi over patch inlet0[1] = -1.5294274e-05

Time = 2.68
    Area vector of patch inlet0[1] = (0 0 -8.9375231e-06)
    Area magnitude of patch inlet0[1] = 8.9375231e-06
    Reading surfaceScalarField phi
    Integral of phi over patch inlet0[1] = -1.5417314e-05

Time = 2.69
    Area vector of patch inlet0[1] = (0 0 -8.9375231e-06)
    Area magnitude of patch inlet0[1] = 8.9375231e-06
    Reading surfaceScalarField phi
    Integral of phi over patch inlet0[1] = -1.5316503e-05

Time = 2.7
    Area vector of patch inlet0[1] = (0 0 -8.9375231e-06)
    Area magnitude of patch inlet0[1] = 8.9375231e-06
    Reading surfaceScalarField phi
    Integral of phi over patch inlet0[1] = -1.5277466e-05

Time = 2.71
    Area vector of patch inlet0[1] = (0 0 -8.9375231e-06)
    Area magnitude of patch inlet0[1] = 8.9375231e-06
    Reading surfaceScalarField phi
    Integral of phi over patch inlet0[1] = -1.540905e-05

Time = 2.72
    Area vector of patch inlet0[1] = (0 0 -8.9375231e-06)
    Area magnitude of patch inlet0[1] = 8.9375231e-06
    Reading surfaceScalarField phi
    Integral of phi over patch inlet0[1] = -1.541183e-05

Time = 2.73
    Area vector of patch inlet0[1] = (0 0 -8.9375231e-06)
    Area magnitude of patch inlet0[1] = 8.9375231e-06
    Reading surfaceScalarField phi
    Integral of phi over patch inlet0[1] = -1.5472719e-05

Time = 2.74
    Area vector of patch inlet0[1] = (0 0 -8.9375231e-06)
    Area magnitude of patch inlet0[1] = 8.9375231e-06
    Reading surfaceScalarField phi
    Integral of phi over patch inlet0[1] = -1.545308e-05

Time = 2.75
    Area vector of patch inlet0[1] = (0 0 -8.9375231e-06)
    Area magnitude of patch inlet0[1] = 8.9375231e-06
    Reading surfaceScalarField phi
    Integral of phi over patch inlet0[1] = -1.5423774e-05

Time = 2.76
    Area vector of patch inlet0[1] = (0 0 -8.9375231e-06)
    Area magnitude of patch inlet0[1] = 8.9375231e-06
    Reading surfaceScalarField phi
    Integral of phi over patch inlet0[1] = -1.5436142e-05

Time = 2.77
    Area vector of patch inlet0[1] = (0 0 -8.9375231e-06)
    Area magnitude of patch inlet0[1] = 8.9375231e-06
    Reading surfaceScalarField phi
    Integral of phi over patch inlet0[1] = -1.5467612e-05

Time = 2.78
    Area vector of patch inlet0[1] = (0 0 -8.9375231e-06)
    Area magnitude of patch inlet0[1] = 8.9375231e-06
    Reading surfaceScalarField phi
    Integral of phi over patch inlet0[1] = -1.5636933e-05

Time = 2.79
    Area vector of patch inlet0[1] = (0 0 -8.9375231e-06)
    Area magnitude of patch inlet0[1] = 8.9375231e-06
    Reading surfaceScalarField phi
    Integral of phi over patch inlet0[1] = -1.53653e-05

Time = 2.8
    Area vector of patch inlet0[1] = (0 0 -8.9375231e-06)
    Area magnitude of patch inlet0[1] = 8.9375231e-06
    Reading surfaceScalarField phi
    Integral of phi over patch inlet0[1] = -1.5516541e-05

Time = 2.81
    Area vector of patch inlet0[1] = (0 0 -8.9375231e-06)
    Area magnitude of patch inlet0[1] = 8.9375231e-06
    Reading surfaceScalarField phi
    Integral of phi over patch inlet0[1] = -1.5383973e-05

Time = 2.82
    Area vector of patch inlet0[1] = (0 0 -8.9375231e-06)
    Area magnitude of patch inlet0[1] = 8.9375231e-06
    Reading surfaceScalarField phi
    Integral of phi over patch inlet0[1] = -1.5636567e-05

Time = 2.83
    Area vector of patch inlet0[1] = (0 0 -8.9375231e-06)
    Area magnitude of patch inlet0[1] = 8.9375231e-06
    Reading surfaceScalarField phi
    Integral of phi over patch inlet0[1] = -1.5527427e-05

Time = 2.84
    Area vector of patch inlet0[1] = (0 0 -8.9375231e-06)
    Area magnitude of patch inlet0[1] = 8.9375231e-06
    Reading surfaceScalarField phi
    Integral of phi over patch inlet0[1] = -1.5485148e-05

Time = 2.85
    Area vector of patch inlet0[1] = (0 0 -8.9375231e-06)
    Area magnitude of patch inlet0[1] = 8.9375231e-06
    Reading surfaceScalarField phi
    Integral of phi over patch inlet0[1] = -1.5575332e-05

Time = 2.86
    Area vector of patch inlet0[1] = (0 0 -8.9375231e-06)
    Area magnitude of patch inlet0[1] = 8.9375231e-06
    Reading surfaceScalarField phi
    Integral of phi over patch inlet0[1] = -1.52973e-05

Time = 2.87
    Area vector of patch inlet0[1] = (0 0 -8.9375231e-06)
    Area magnitude of patch inlet0[1] = 8.9375231e-06
    Reading surfaceScalarField phi
    Integral of phi over patch inlet0[1] = -1.5505537e-05

Time = 2.88
    Area vector of patch inlet0[1] = (0 0 -8.9375231e-06)
    Area magnitude of patch inlet0[1] = 8.9375231e-06
    Reading surfaceScalarField phi
    Integral of phi over patch inlet0[1] = -1.5423261e-05

Time = 2.89
    Area vector of patch inlet0[1] = (0 0 -8.9375231e-06)
    Area magnitude of patch inlet0[1] = 8.9375231e-06
    Reading surfaceScalarField phi
    Integral of phi over patch inlet0[1] = -1.548999e-05

Time = 2.9
    Area vector of patch inlet0[1] = (0 0 -8.9375231e-06)
    Area magnitude of patch inlet0[1] = 8.9375231e-06
    Reading surfaceScalarField phi
    Integral of phi over patch inlet0[1] = -1.5367578e-05

Time = 2.91
    Area vector of patch inlet0[1] = (0 0 -8.9375231e-06)
    Area magnitude of patch inlet0[1] = 8.9375231e-06
    Reading surfaceScalarField phi
    Integral of phi over patch inlet0[1] = -1.5415912e-05

Time = 2.92
    Area vector of patch inlet0[1] = (0 0 -8.9375231e-06)
    Area magnitude of patch inlet0[1] = 8.9375231e-06
    Reading surfaceScalarField phi
    Integral of phi over patch inlet0[1] = -1.5390924e-05

Time = 2.93
    Area vector of patch inlet0[1] = (0 0 -8.9375231e-06)
    Area magnitude of patch inlet0[1] = 8.9375231e-06
    Reading surfaceScalarField phi
    Integral of phi over patch inlet0[1] = -1.5474282e-05

Time = 2.94
    Area vector of patch inlet0[1] = (0 0 -8.9375231e-06)
    Area magnitude of patch inlet0[1] = 8.9375231e-06
    Reading surfaceScalarField phi
    Integral of phi over patch inlet0[1] = -1.5408471e-05

Time = 2.95
    Area vector of patch inlet0[1] = (0 0 -8.9375231e-06)
    Area magnitude of patch inlet0[1] = 8.9375231e-06
    Reading surfaceScalarField phi
    Integral of phi over patch inlet0[1] = -1.5308629e-05

Time = 2.96
    Area vector of patch inlet0[1] = (0 0 -8.9375231e-06)
    Area magnitude of patch inlet0[1] = 8.9375231e-06
    Reading surfaceScalarField phi
    Integral of phi over patch inlet0[1] = -1.5515993e-05

Time = 2.97
    Area vector of patch inlet0[1] = (0 0 -8.9375231e-06)
    Area magnitude of patch inlet0[1] = 8.9375231e-06
    Reading surfaceScalarField phi
    Integral of phi over patch inlet0[1] = -1.5337683e-05

Time = 2.98
    Area vector of patch inlet0[1] = (0 0 -8.9375231e-06)
    Area magnitude of patch inlet0[1] = 8.9375231e-06
    Reading surfaceScalarField phi
    Integral of phi over patch inlet0[1] = -1.5334875e-05

Time = 2.99
    Area vector of patch inlet0[1] = (0 0 -8.9375231e-06)
    Area magnitude of patch inlet0[1] = 8.9375231e-06
    Reading surfaceScalarField phi
    Integral of phi over patch inlet0[1] = -1.5368128e-05

Time = 3
    Area vector of patch inlet0[1] = (0 0 -8.9375231e-06)
    Area magnitude of patch inlet0[1] = 8.9375231e-06
    Reading surfaceScalarField phi
    Integral of phi over patch inlet0[1] = -1.5342456e-05

Time = 3.01
    Area vector of patch inlet0[1] = (0 0 -8.9375231e-06)
    Area magnitude of patch inlet0[1] = 8.9375231e-06
    Reading surfaceScalarField phi
    Integral of phi over patch inlet0[1] = -1.5404071e-05

Time = 3.02
    Area vector of patch inlet0[1] = (0 0 -8.9375231e-06)
    Area magnitude of patch inlet0[1] = 8.9375231e-06
    Reading surfaceScalarField phi
    Integral of phi over patch inlet0[1] = -1.5525393e-05

Time = 3.03
    Area vector of patch inlet0[1] = (0 0 -8.9375231e-06)
    Area magnitude of patch inlet0[1] = 8.9375231e-06
    Reading surfaceScalarField phi
    Integral of phi over patch inlet0[1] = -1.5464349e-05

Time = 3.04
    Area vector of patch inlet0[1] = (0 0 -8.9375231e-06)
    Area magnitude of patch inlet0[1] = 8.9375231e-06
    Reading surfaceScalarField phi
    Integral of phi over patch inlet0[1] = -1.5476043e-05

Time = 3.05
    Area vector of patch inlet0[1] = (0 0 -8.9375231e-06)
    Area magnitude of patch inlet0[1] = 8.9375231e-06
    Reading surfaceScalarField phi
    Integral of phi over patch inlet0[1] = -1.5326529e-05

Time = 3.06
    Area vector of patch inlet0[1] = (0 0 -8.9375231e-06)
    Area magnitude of patch inlet0[1] = 8.9375231e-06
    Reading surfaceScalarField phi
    Integral of phi over patch inlet0[1] = -1.5396539e-05

Time = 3.07
    Area vector of patch inlet0[1] = (0 0 -8.9375231e-06)
    Area magnitude of patch inlet0[1] = 8.9375231e-06
    Reading surfaceScalarField phi
    Integral of phi over patch inlet0[1] = -1.5375054e-05

Time = 3.08
    Area vector of patch inlet0[1] = (0 0 -8.9375231e-06)
    Area magnitude of patch inlet0[1] = 8.9375231e-06
    Reading surfaceScalarField phi
    Integral of phi over patch inlet0[1] = -1.5427383e-05

Time = 3.09
    Area vector of patch inlet0[1] = (0 0 -8.9375231e-06)
    Area magnitude of patch inlet0[1] = 8.9375231e-06
    Reading surfaceScalarField phi
    Integral of phi over patch inlet0[1] = -1.5435793e-05

Time = 3.1
    Area vector of patch inlet0[1] = (0 0 -8.9375231e-06)
    Area magnitude of patch inlet0[1] = 8.9375231e-06
    Reading surfaceScalarField phi
    Integral of phi over patch inlet0[1] = -1.5520411e-05

Time = 3.11
    Area vector of patch inlet0[1] = (0 0 -8.9375231e-06)
    Area magnitude of patch inlet0[1] = 8.9375231e-06
    Reading surfaceScalarField phi
    Integral of phi over patch inlet0[1] = -1.5664838e-05

Time = 3.12
    Area vector of patch inlet0[1] = (0 0 -8.9375231e-06)
    Area magnitude of patch inlet0[1] = 8.9375231e-06
    Reading surfaceScalarField phi
    Integral of phi over patch inlet0[1] = -1.5334633e-05

Time = 3.13
    Area vector of patch inlet0[1] = (0 0 -8.9375231e-06)
    Area magnitude of patch inlet0[1] = 8.9375231e-06
    Reading surfaceScalarField phi
    Integral of phi over patch inlet0[1] = -1.5539653e-05

Time = 3.14
    Area vector of patch inlet0[1] = (0 0 -8.9375231e-06)
    Area magnitude of patch inlet0[1] = 8.9375231e-06
    Reading surfaceScalarField phi
    Integral of phi over patch inlet0[1] = -1.5487166e-05

Time = 3.15
    Area vector of patch inlet0[1] = (0 0 -8.9375231e-06)
    Area magnitude of patch inlet0[1] = 8.9375231e-06
    Reading surfaceScalarField phi
    Integral of phi over patch inlet0[1] = -1.5638302e-05

Time = 3.16
    Area vector of patch inlet0[1] = (0 0 -8.9375231e-06)
    Area magnitude of patch inlet0[1] = 8.9375231e-06
    Reading surfaceScalarField phi
    Integral of phi over patch inlet0[1] = -1.5588866e-05

Time = 3.17
    Area vector of patch inlet0[1] = (0 0 -8.9375231e-06)
    Area magnitude of patch inlet0[1] = 8.9375231e-06
    Reading surfaceScalarField phi
    Integral of phi over patch inlet0[1] = -1.5656441e-05

Time = 3.18
    Area vector of patch inlet0[1] = (0 0 -8.9375231e-06)
    Area magnitude of patch inlet0[1] = 8.9375231e-06
    Reading surfaceScalarField phi
    Integral of phi over patch inlet0[1] = -1.5620954e-05

Time = 3.19
    Area vector of patch inlet0[1] = (0 0 -8.9375231e-06)
    Area magnitude of patch inlet0[1] = 8.9375231e-06
    Reading surfaceScalarField phi
    Integral of phi over patch inlet0[1] = -1.5690651e-05

Time = 3.2
    Area vector of patch inlet0[1] = (0 0 -8.9375231e-06)
    Area magnitude of patch inlet0[1] = 8.9375231e-06
    Reading surfaceScalarField phi
    Integral of phi over patch inlet0[1] = -1.5515132e-05

Time = 3.21
    Area vector of patch inlet0[1] = (0 0 -8.9375231e-06)
    Area magnitude of patch inlet0[1] = 8.9375231e-06
    Reading surfaceScalarField phi
    Integral of phi over patch inlet0[1] = -1.555257e-05

Time = 3.22
    Area vector of patch inlet0[1] = (0 0 -8.9375231e-06)
    Area magnitude of patch inlet0[1] = 8.9375231e-06
    Reading surfaceScalarField phi
    Integral of phi over patch inlet0[1] = -1.5515253e-05

Time = 3.23
    Area vector of patch inlet0[1] = (0 0 -8.9375231e-06)
    Area magnitude of patch inlet0[1] = 8.9375231e-06
    Reading surfaceScalarField phi
    Integral of phi over patch inlet0[1] = -1.555343e-05

Time = 3.24
    Area vector of patch inlet0[1] = (0 0 -8.9375231e-06)
    Area magnitude of patch inlet0[1] = 8.9375231e-06
    Reading surfaceScalarField phi
    Integral of phi over patch inlet0[1] = -1.5643365e-05

Time = 3.25
    Area vector of patch inlet0[1] = (0 0 -8.9375231e-06)
    Area magnitude of patch inlet0[1] = 8.9375231e-06
    Reading surfaceScalarField phi
    Integral of phi over patch inlet0[1] = -1.5533752e-05

Time = 3.26
    Area vector of patch inlet0[1] = (0 0 -8.9375231e-06)
    Area magnitude of patch inlet0[1] = 8.9375231e-06
    Reading surfaceScalarField phi
    Integral of phi over patch inlet0[1] = -1.5651564e-05

Time = 3.27
    Area vector of patch inlet0[1] = (0 0 -8.9375231e-06)
    Area magnitude of patch inlet0[1] = 8.9375231e-06
    Reading surfaceScalarField phi
    Integral of phi over patch inlet0[1] = -1.5614873e-05

Time = 3.28
    Area vector of patch inlet0[1] = (0 0 -8.9375231e-06)
    Area magnitude of patch inlet0[1] = 8.9375231e-06
    Reading surfaceScalarField phi
    Integral of phi over patch inlet0[1] = -1.5653517e-05

Time = 3.29
    Area vector of patch inlet0[1] = (0 0 -8.9375231e-06)
    Area magnitude of patch inlet0[1] = 8.9375231e-06
    Reading surfaceScalarField phi
    Integral of phi over patch inlet0[1] = -1.5547422e-05

Time = 3.3
    Area vector of patch inlet0[1] = (0 0 -8.9375231e-06)
    Area magnitude of patch inlet0[1] = 8.9375231e-06
    Reading surfaceScalarField phi
    Integral of phi over patch inlet0[1] = -1.5526308e-05

Time = 3.31
    Area vector of patch inlet0[1] = (0 0 -8.9375231e-06)
    Area magnitude of patch inlet0[1] = 8.9375231e-06
    Reading surfaceScalarField phi
    Integral of phi over patch inlet0[1] = -1.5635269e-05

Time = 3.32
    Area vector of patch inlet0[1] = (0 0 -8.9375231e-06)
    Area magnitude of patch inlet0[1] = 8.9375231e-06
    Reading surfaceScalarField phi
    Integral of phi over patch inlet0[1] = -1.5509239e-05

Time = 3.33
    Area vector of patch inlet0[1] = (0 0 -8.9375231e-06)
    Area magnitude of patch inlet0[1] = 8.9375231e-06
    Reading surfaceScalarField phi
    Integral of phi over patch inlet0[1] = -1.5591193e-05

Time = 3.34
    Area vector of patch inlet0[1] = (0 0 -8.9375231e-06)
    Area magnitude of patch inlet0[1] = 8.9375231e-06
    Reading surfaceScalarField phi
    Integral of phi over patch inlet0[1] = -1.5512167e-05

Time = 3.35
    Area vector of patch inlet0[1] = (0 0 -8.9375231e-06)
    Area magnitude of patch inlet0[1] = 8.9375231e-06
    Reading surfaceScalarField phi
    Integral of phi over patch inlet0[1] = -1.5626504e-05

Time = 3.36
    Area vector of patch inlet0[1] = (0 0 -8.9375231e-06)
    Area magnitude of patch inlet0[1] = 8.9375231e-06
    Reading surfaceScalarField phi
    Integral of phi over patch inlet0[1] = -1.558076e-05

Time = 3.37
    Area vector of patch inlet0[1] = (0 0 -8.9375231e-06)
    Area magnitude of patch inlet0[1] = 8.9375231e-06
    Reading surfaceScalarField phi
    Integral of phi over patch inlet0[1] = -1.5539174e-05

Time = 3.38
    Area vector of patch inlet0[1] = (0 0 -8.9375231e-06)
    Area magnitude of patch inlet0[1] = 8.9375231e-06
    Reading surfaceScalarField phi
    Integral of phi over patch inlet0[1] = -1.552319e-05

Time = 3.39
    Area vector of patch inlet0[1] = (0 0 -8.9375231e-06)
    Area magnitude of patch inlet0[1] = 8.9375231e-06
    Reading surfaceScalarField phi
    Integral of phi over patch inlet0[1] = -1.5513615e-05

Time = 3.4
    Area vector of patch inlet0[1] = (0 0 -8.9375231e-06)
    Area magnitude of patch inlet0[1] = 8.9375231e-06
    Reading surfaceScalarField phi
    Integral of phi over patch inlet0[1] = -1.5661275e-05

Time = 3.41
    Area vector of patch inlet0[1] = (0 0 -8.9375231e-06)
    Area magnitude of patch inlet0[1] = 8.9375231e-06
    Reading surfaceScalarField phi
    Integral of phi over patch inlet0[1] = -1.5449716e-05

Time = 3.42
    Area vector of patch inlet0[1] = (0 0 -8.9375231e-06)
    Area magnitude of patch inlet0[1] = 8.9375231e-06
    Reading surfaceScalarField phi
    Integral of phi over patch inlet0[1] = -1.5638597e-05

Time = 3.43
    Area vector of patch inlet0[1] = (0 0 -8.9375231e-06)
    Area magnitude of patch inlet0[1] = 8.9375231e-06
    Reading surfaceScalarField phi
    Integral of phi over patch inlet0[1] = -1.5550808e-05

Time = 3.44
    Area vector of patch inlet0[1] = (0 0 -8.9375231e-06)
    Area magnitude of patch inlet0[1] = 8.9375231e-06
    Reading surfaceScalarField phi
    Integral of phi over patch inlet0[1] = -1.543823e-05

Time = 3.45
    Area vector of patch inlet0[1] = (0 0 -8.9375231e-06)
    Area magnitude of patch inlet0[1] = 8.9375231e-06
    Reading surfaceScalarField phi
    Integral of phi over patch inlet0[1] = -1.555388e-05

Time = 3.46
    Area vector of patch inlet0[1] = (0 0 -8.9375231e-06)
    Area magnitude of patch inlet0[1] = 8.9375231e-06
    Reading surfaceScalarField phi
    Integral of phi over patch inlet0[1] = -1.5491317e-05

Time = 3.47
    Area vector of patch inlet0[1] = (0 0 -8.9375231e-06)
    Area magnitude of patch inlet0[1] = 8.9375231e-06
    Reading surfaceScalarField phi
    Integral of phi over patch inlet0[1] = -1.556795e-05

Time = 3.48
    Area vector of patch inlet0[1] = (0 0 -8.9375231e-06)
    Area magnitude of patch inlet0[1] = 8.9375231e-06
    Reading surfaceScalarField phi
    Integral of phi over patch inlet0[1] = -1.5484233e-05

Time = 3.49
    Area vector of patch inlet0[1] = (0 0 -8.9375231e-06)
    Area magnitude of patch inlet0[1] = 8.9375231e-06
    Reading surfaceScalarField phi
    Integral of phi over patch inlet0[1] = -1.5483566e-05

Time = 3.5
    Area vector of patch inlet0[1] = (0 0 -8.9375231e-06)
    Area magnitude of patch inlet0[1] = 8.9375231e-06
    Reading surfaceScalarField phi
    Integral of phi over patch inlet0[1] = -1.5469356e-05

Time = 3.51
    Area vector of patch inlet0[1] = (0 0 -8.9375231e-06)
    Area magnitude of patch inlet0[1] = 8.9375231e-06
    Reading surfaceScalarField phi
    Integral of phi over patch inlet0[1] = -1.5159465e-05

Time = 3.52
    Area vector of patch inlet0[1] = (0 0 -8.9375231e-06)
    Area magnitude of patch inlet0[1] = 8.9375231e-06
    Reading surfaceScalarField phi
    Integral of phi over patch inlet0[1] = -1.4564073e-05

End

Finalising parallel run
/*---------------------------------------------------------------------------*\
| =========                 |                                                 |
| \\      /  F ield         | OpenFOAM: The Open Source CFD Toolbox           |
|  \\    /   O peration     | Version:  2.3.x                                 |
|   \\  /    A nd           | Web:      www.OpenFOAM.org                      |
|    \\/     M anipulation  |                                                 |
\*---------------------------------------------------------------------------*/
Build  : 2.3.x
Exec   : patchIntegrate -time 3.52:4 phi inlet0 -parallel
Date   : Jul 06 2018
Time   : 11:05:57
Host   : "visu"
PID    : 128027
Case   : /home/lmfa/hluo/LocalSoftware/OpenFOAM/hluo-2.3.x/run/pipe/periodic/pipe4/prototype_artificiallyReducedViscosity
nProcs : 32
Slaves : 
31
(
"visu.128028"
"visu.128029"
"visu.128030"
"visu.128031"
"visu.128034"
"visu.128035"
"visu.128036"
"visu.128037"
"visu.128039"
"visu.128040"
"visu.128041"
"visu.128042"
"visu.128043"
"visu.128044"
"visu.128045"
"visu.128046"
"visu.128047"
"visu.128048"
"visu.128049"
"visu.128050"
"visu.128051"
"visu.128052"
"visu.128053"
"visu.128054"
"visu.128055"
"visu.128056"
"visu.128057"
"visu.128058"
"visu.128059"
"visu.128060"
"visu.128061"
)

Pstream initialized with:
    floatTransfer      : 0
    nProcsSimpleSum    : 0
    commsType          : nonBlocking
    polling iterations : 0
sigFpe : Enabling floating point exception trapping (FOAM_SIGFPE).
fileModificationChecking : Monitoring run-time modified files using timeStampMaster
allowSystemOperations : Allowing user-supplied system call operations

// * * * * * * * * * * * * * * * * * * * * * * * * * * * * * * * * * * * * * //
Create time

--> FOAM Warning : 
    From function dlOpen(const fileName&, const bool)
    in file POSIX.C at line 1179
    dlopen error : /home/lmfa/hluo/LocalSoftware/OpenFOAM/hluo-2.3.x/platforms/linux64GccDPOpt/lib/libfvOptionUserConstantExplicitPGradForce.so: undefined symbol: _ZTIN4Foam2fv6optionE
--> FOAM Warning : 
    From function dlLibraryTable::open(const fileName&, const bool)
    in file db/dynamicLibrary/dlLibraryTable/dlLibraryTable.C at line 99
    could not load "libfvOptionUserConstantExplicitPGradForce.so"
Create mesh for time = 3.52

Time = 3.52
    Area vector of patch inlet0[1] = (0 0 -8.9375231e-06)
    Area magnitude of patch inlet0[1] = 8.9375231e-06
    Reading surfaceScalarField phi
    Integral of phi over patch inlet0[1] = -1.4564073e-05

Time = 3.53
    Area vector of patch inlet0[1] = (0 0 -8.9375231e-06)
    Area magnitude of patch inlet0[1] = 8.9375231e-06
    Reading surfaceScalarField phi
    Integral of phi over patch inlet0[1] = -1.4224186e-05

Time = 3.54
    Area vector of patch inlet0[1] = (0 0 -8.9375231e-06)
    Area magnitude of patch inlet0[1] = 8.9375231e-06
    Reading surfaceScalarField phi
    Integral of phi over patch inlet0[1] = -1.408538e-05

Time = 3.55
    Area vector of patch inlet0[1] = (0 0 -8.9375231e-06)
    Area magnitude of patch inlet0[1] = 8.9375231e-06
    Reading surfaceScalarField phi
    Integral of phi over patch inlet0[1] = -1.3956793e-05

Time = 3.56
    Area vector of patch inlet0[1] = (0 0 -8.9375231e-06)
    Area magnitude of patch inlet0[1] = 8.9375231e-06
    Reading surfaceScalarField phi
    Integral of phi over patch inlet0[1] = -1.3693322e-05

Time = 3.57
    Area vector of patch inlet0[1] = (0 0 -8.9375231e-06)
    Area magnitude of patch inlet0[1] = 8.9375231e-06
    Reading surfaceScalarField phi
    Integral of phi over patch inlet0[1] = -1.366152e-05

Time = 3.58
    Area vector of patch inlet0[1] = (0 0 -8.9375231e-06)
    Area magnitude of patch inlet0[1] = 8.9375231e-06
    Reading surfaceScalarField phi
    Integral of phi over patch inlet0[1] = -1.3319773e-05

Time = 3.59
    Area vector of patch inlet0[1] = (0 0 -8.9375231e-06)
    Area magnitude of patch inlet0[1] = 8.9375231e-06
    Reading surfaceScalarField phi
    Integral of phi over patch inlet0[1] = -1.3319909e-05

Time = 3.6
    Area vector of patch inlet0[1] = (0 0 -8.9375231e-06)
    Area magnitude of patch inlet0[1] = 8.9375231e-06
    Reading surfaceScalarField phi
    Integral of phi over patch inlet0[1] = -1.3104898e-05

Time = 3.61
    Area vector of patch inlet0[1] = (0 0 -8.9375231e-06)
    Area magnitude of patch inlet0[1] = 8.9375231e-06
    Reading surfaceScalarField phi
    Integral of phi over patch inlet0[1] = -1.2999329e-05

Time = 3.62
    Area vector of patch inlet0[1] = (0 0 -8.9375231e-06)
    Area magnitude of patch inlet0[1] = 8.9375231e-06
    Reading surfaceScalarField phi
    Integral of phi over patch inlet0[1] = -1.2981932e-05

Time = 3.63
    Area vector of patch inlet0[1] = (0 0 -8.9375231e-06)
    Area magnitude of patch inlet0[1] = 8.9375231e-06
    Reading surfaceScalarField phi
    Integral of phi over patch inlet0[1] = -1.272166e-05

Time = 3.64
    Area vector of patch inlet0[1] = (0 0 -8.9375231e-06)
    Area magnitude of patch inlet0[1] = 8.9375231e-06
    Reading surfaceScalarField phi
    Integral of phi over patch inlet0[1] = -1.2499429e-05

Time = 3.65
    Area vector of patch inlet0[1] = (0 0 -8.9375231e-06)
    Area magnitude of patch inlet0[1] = 8.9375231e-06
    Reading surfaceScalarField phi
    Integral of phi over patch inlet0[1] = -1.321359e-05

Time = 3.66
    Area vector of patch inlet0[1] = (0 0 -8.9375231e-06)
    Area magnitude of patch inlet0[1] = 8.9375231e-06
    Reading surfaceScalarField phi
    Integral of phi over patch inlet0[1] = -1.3131778e-05

Time = 3.67
    Area vector of patch inlet0[1] = (0 0 -8.9375231e-06)
    Area magnitude of patch inlet0[1] = 8.9375231e-06
    Reading surfaceScalarField phi
    Integral of phi over patch inlet0[1] = -1.2157359e-05

Time = 3.68
    Area vector of patch inlet0[1] = (0 0 -8.9375231e-06)
    Area magnitude of patch inlet0[1] = 8.9375231e-06
    Reading surfaceScalarField phi
    Integral of phi over patch inlet0[1] = -1.2474638e-05

Time = 3.69
    Area vector of patch inlet0[1] = (0 0 -8.9375231e-06)
    Area magnitude of patch inlet0[1] = 8.9375231e-06
    Reading surfaceScalarField phi
    Integral of phi over patch inlet0[1] = -1.2183577e-05

Time = 3.7
    Area vector of patch inlet0[1] = (0 0 -8.9375231e-06)
    Area magnitude of patch inlet0[1] = 8.9375231e-06
    Reading surfaceScalarField phi
    Integral of phi over patch inlet0[1] = -1.2195111e-05

Time = 3.71
    Area vector of patch inlet0[1] = (0 0 -8.9375231e-06)
    Area magnitude of patch inlet0[1] = 8.9375231e-06
    Reading surfaceScalarField phi
    Integral of phi over patch inlet0[1] = -1.1664375e-05

Time = 3.72
    Area vector of patch inlet0[1] = (0 0 -8.9375231e-06)
    Area magnitude of patch inlet0[1] = 8.9375231e-06
    Reading surfaceScalarField phi
    Integral of phi over patch inlet0[1] = -1.1479587e-05

Time = 3.73
    Area vector of patch inlet0[1] = (0 0 -8.9375231e-06)
    Area magnitude of patch inlet0[1] = 8.9375231e-06
    Reading surfaceScalarField phi
    Integral of phi over patch inlet0[1] = -1.1368047e-05

Time = 3.74
    Area vector of patch inlet0[1] = (0 0 -8.9375231e-06)
    Area magnitude of patch inlet0[1] = 8.9375231e-06
    Reading surfaceScalarField phi
    Integral of phi over patch inlet0[1] = -1.1361795e-05

Time = 3.75
    Area vector of patch inlet0[1] = (0 0 -8.9375231e-06)
    Area magnitude of patch inlet0[1] = 8.9375231e-06
    Reading surfaceScalarField phi
    Integral of phi over patch inlet0[1] = -1.1325203e-05

Time = 3.76
    Area vector of patch inlet0[1] = (0 0 -8.9375231e-06)
    Area magnitude of patch inlet0[1] = 8.9375231e-06
    Reading surfaceScalarField phi
    Integral of phi over patch inlet0[1] = -1.1143605e-05

Time = 3.77
    Area vector of patch inlet0[1] = (0 0 -8.9375231e-06)
    Area magnitude of patch inlet0[1] = 8.9375231e-06
    Reading surfaceScalarField phi
    Integral of phi over patch inlet0[1] = -1.0709395e-05

Time = 3.78
    Area vector of patch inlet0[1] = (0 0 -8.9375231e-06)
    Area magnitude of patch inlet0[1] = 8.9375231e-06
    Reading surfaceScalarField phi
    Integral of phi over patch inlet0[1] = -1.0377231e-05

Time = 3.79
    Area vector of patch inlet0[1] = (0 0 -8.9375231e-06)
    Area magnitude of patch inlet0[1] = 8.9375231e-06
    Reading surfaceScalarField phi
    Integral of phi over patch inlet0[1] = -1.0571522e-05

Time = 3.8
    Area vector of patch inlet0[1] = (0 0 -8.9375231e-06)
    Area magnitude of patch inlet0[1] = 8.9375231e-06
    Reading surfaceScalarField phi
    Integral of phi over patch inlet0[1] = -1.0524428e-05

Time = 3.81
    Area vector of patch inlet0[1] = (0 0 -8.9375231e-06)
    Area magnitude of patch inlet0[1] = 8.9375231e-06
    Reading surfaceScalarField phi
    Integral of phi over patch inlet0[1] = -9.9918083e-06

Time = 3.82
    Area vector of patch inlet0[1] = (0 0 -8.9375231e-06)
    Area magnitude of patch inlet0[1] = 8.9375231e-06
    Reading surfaceScalarField phi
    Integral of phi over patch inlet0[1] = -1.0434593e-05

Time = 3.83
    Area vector of patch inlet0[1] = (0 0 -8.9375231e-06)
    Area magnitude of patch inlet0[1] = 8.9375231e-06
    Reading surfaceScalarField phi
    Integral of phi over patch inlet0[1] = -1.045845e-05

Time = 3.84
    Area vector of patch inlet0[1] = (0 0 -8.9375231e-06)
    Area magnitude of patch inlet0[1] = 8.9375231e-06
    Reading surfaceScalarField phi
    Integral of phi over patch inlet0[1] = -9.7921308e-06

Time = 3.85
    Area vector of patch inlet0[1] = (0 0 -8.9375231e-06)
    Area magnitude of patch inlet0[1] = 8.9375231e-06
    Reading surfaceScalarField phi
    Integral of phi over patch inlet0[1] = -9.7991029e-06

Time = 3.86
    Area vector of patch inlet0[1] = (0 0 -8.9375231e-06)
    Area magnitude of patch inlet0[1] = 8.9375231e-06
    Reading surfaceScalarField phi
    Integral of phi over patch inlet0[1] = -9.9081371e-06

Time = 3.87
    Area vector of patch inlet0[1] = (0 0 -8.9375231e-06)
    Area magnitude of patch inlet0[1] = 8.9375231e-06
    Reading surfaceScalarField phi
    Integral of phi over patch inlet0[1] = -9.7530399e-06

Time = 3.88
    Area vector of patch inlet0[1] = (0 0 -8.9375231e-06)
    Area magnitude of patch inlet0[1] = 8.9375231e-06
    Reading surfaceScalarField phi
    Integral of phi over patch inlet0[1] = -9.4684048e-06

Time = 3.89
    Area vector of patch inlet0[1] = (0 0 -8.9375231e-06)
    Area magnitude of patch inlet0[1] = 8.9375231e-06
    Reading surfaceScalarField phi
    Integral of phi over patch inlet0[1] = -9.5056522e-06

Time = 3.9
    Area vector of patch inlet0[1] = (0 0 -8.9375231e-06)
    Area magnitude of patch inlet0[1] = 8.9375231e-06
    Reading surfaceScalarField phi
    Integral of phi over patch inlet0[1] = -9.4720463e-06

Time = 3.91
    Area vector of patch inlet0[1] = (0 0 -8.9375231e-06)
    Area magnitude of patch inlet0[1] = 8.9375231e-06
    Reading surfaceScalarField phi
    Integral of phi over patch inlet0[1] = -8.9968737e-06

Time = 3.92
    Area vector of patch inlet0[1] = (0 0 -8.9375231e-06)
    Area magnitude of patch inlet0[1] = 8.9375231e-06
    Reading surfaceScalarField phi
    Integral of phi over patch inlet0[1] = -9.3710968e-06

Time = 3.93
    Area vector of patch inlet0[1] = (0 0 -8.9375231e-06)
    Area magnitude of patch inlet0[1] = 8.9375231e-06
    Reading surfaceScalarField phi
    Integral of phi over patch inlet0[1] = -9.1249257e-06

Time = 3.94
    Area vector of patch inlet0[1] = (0 0 -8.9375231e-06)
    Area magnitude of patch inlet0[1] = 8.9375231e-06
    Reading surfaceScalarField phi
    Integral of phi over patch inlet0[1] = -8.9150863e-06

Time = 3.95
    Area vector of patch inlet0[1] = (0 0 -8.9375231e-06)
    Area magnitude of patch inlet0[1] = 8.9375231e-06
    Reading surfaceScalarField phi
    Integral of phi over patch inlet0[1] = -9.0439588e-06

Time = 3.96
    Area vector of patch inlet0[1] = (0 0 -8.9375231e-06)
    Area magnitude of patch inlet0[1] = 8.9375231e-06
    Reading surfaceScalarField phi
    Integral of phi over patch inlet0[1] = -8.9619987e-06

Time = 3.97
    Area vector of patch inlet0[1] = (0 0 -8.9375231e-06)
    Area magnitude of patch inlet0[1] = 8.9375231e-06
    Reading surfaceScalarField phi
    Integral of phi over patch inlet0[1] = -9.3280145e-06

Time = 3.98
    Area vector of patch inlet0[1] = (0 0 -8.9375231e-06)
    Area magnitude of patch inlet0[1] = 8.9375231e-06
    Reading surfaceScalarField phi
    Integral of phi over patch inlet0[1] = -8.7497543e-06

Time = 3.99
    Area vector of patch inlet0[1] = (0 0 -8.9375231e-06)
    Area magnitude of patch inlet0[1] = 8.9375231e-06
    Reading surfaceScalarField phi
    Integral of phi over patch inlet0[1] = -8.8728006e-06

Time = 4
    Area vector of patch inlet0[1] = (0 0 -8.9375231e-06)
    Area magnitude of patch inlet0[1] = 8.9375231e-06
    Reading surfaceScalarField phi
    Integral of phi over patch inlet0[1] = -8.7802233e-06

End

Finalising parallel run
