/*---------------------------------------------------------------------------*\
| =========                 |                                                 |
| \\      /  F ield         | OpenFOAM: The Open Source CFD Toolbox           |
|  \\    /   O peration     | Version:  2.3.x                                 |
|   \\  /    A nd           | Web:      www.OpenFOAM.org                      |
|    \\/     M anipulation  |                                                 |
\*---------------------------------------------------------------------------*/
Build  : 2.3.x
Exec   : patchIntegrate -time 0:3.52 phi inlet3 -parallel
Date   : Jul 05 2018
Time   : 18:21:28
Host   : "visu"
PID    : 85605
Case   : /home/lmfa/hluo/LocalSoftware/OpenFOAM/hluo-2.3.x/run/pipe/periodic/pipe4/prototype_artificiallyReducedViscosity
nProcs : 32
Slaves : 
31
(
"visu.85606"
"visu.85607"
"visu.85608"
"visu.85609"
"visu.85610"
"visu.85611"
"visu.85612"
"visu.85613"
"visu.85614"
"visu.85615"
"visu.85616"
"visu.85618"
"visu.85619"
"visu.85620"
"visu.85621"
"visu.85622"
"visu.85624"
"visu.85626"
"visu.85627"
"visu.85628"
"visu.85629"
"visu.85630"
"visu.85631"
"visu.85632"
"visu.85633"
"visu.85634"
"visu.85635"
"visu.85636"
"visu.85637"
"visu.85638"
"visu.85639"
)

Pstream initialized with:
    floatTransfer      : 0
    nProcsSimpleSum    : 0
    commsType          : nonBlocking
    polling iterations : 0
sigFpe : Enabling floating point exception trapping (FOAM_SIGFPE).
fileModificationChecking : Monitoring run-time modified files using timeStampMaster
allowSystemOperations : Allowing user-supplied system call operations

// * * * * * * * * * * * * * * * * * * * * * * * * * * * * * * * * * * * * * //
Create time

--> FOAM Warning : 
    From function dlOpen(const fileName&, const bool)
    in file POSIX.C at line 1179
    dlopen error : /home/lmfa/hluo/LocalSoftware/OpenFOAM/hluo-2.3.x/platforms/linux64GccDPOpt/lib/libfvOptionUserConstantExplicitPGradForce.so: undefined symbol: _ZTIN4Foam2fv6optionE
--> FOAM Warning : 
    From function dlLibraryTable::open(const fileName&, const bool)
    in file db/dynamicLibrary/dlLibraryTable/dlLibraryTable.C at line 99
    could not load "libfvOptionUserConstantExplicitPGradForce.so"
Create mesh for time = 0

Time = 0
    No field phi

Time = 0.0021
    Area vector of patch inlet3[7] = (0 0 -9.0830079e-06)
    Area magnitude of patch inlet3[7] = 9.0830079e-06
    Reading surfaceScalarField phi
    Integral of phi over patch inlet3[7] = -6.5737602e-06

Time = 0.004
    Area vector of patch inlet3[7] = (0 0 -9.0830079e-06)
    Area magnitude of patch inlet3[7] = 9.0830079e-06
    Reading surfaceScalarField phi
    Integral of phi over patch inlet3[7] = -6.6800023e-06

Time = 0.006
    Area vector of patch inlet3[7] = (0 0 -9.0830079e-06)
    Area magnitude of patch inlet3[7] = 9.0830079e-06
    Reading surfaceScalarField phi
    Integral of phi over patch inlet3[7] = -6.8981753e-06

Time = 0.008
    Area vector of patch inlet3[7] = (0 0 -9.0830079e-06)
    Area magnitude of patch inlet3[7] = 9.0830079e-06
    Reading surfaceScalarField phi
    Integral of phi over patch inlet3[7] = -6.9211857e-06

Time = 0.01
    Area vector of patch inlet3[7] = (0 0 -9.0830079e-06)
    Area magnitude of patch inlet3[7] = 9.0830079e-06
    Reading surfaceScalarField phi
    Integral of phi over patch inlet3[7] = -6.7778018e-06

Time = 0.02
    Area vector of patch inlet3[7] = (0 0 -9.0830079e-06)
    Area magnitude of patch inlet3[7] = 9.0830079e-06
    Reading surfaceScalarField phi
    Integral of phi over patch inlet3[7] = -7.138853e-06

Time = 0.03
    Area vector of patch inlet3[7] = (0 0 -9.0830079e-06)
    Area magnitude of patch inlet3[7] = 9.0830079e-06
    Reading surfaceScalarField phi
    Integral of phi over patch inlet3[7] = -7.1789137e-06

Time = 0.04
    Area vector of patch inlet3[7] = (0 0 -9.0830079e-06)
    Area magnitude of patch inlet3[7] = 9.0830079e-06
    Reading surfaceScalarField phi
    Integral of phi over patch inlet3[7] = -7.0831741e-06

Time = 0.05
    Area vector of patch inlet3[7] = (0 0 -9.0830079e-06)
    Area magnitude of patch inlet3[7] = 9.0830079e-06
    Reading surfaceScalarField phi
    Integral of phi over patch inlet3[7] = -7.3292939e-06

Time = 0.06
    Area vector of patch inlet3[7] = (0 0 -9.0830079e-06)
    Area magnitude of patch inlet3[7] = 9.0830079e-06
    Reading surfaceScalarField phi
    Integral of phi over patch inlet3[7] = -7.4936188e-06

Time = 0.07
    Area vector of patch inlet3[7] = (0 0 -9.0830079e-06)
    Area magnitude of patch inlet3[7] = 9.0830079e-06
    Reading surfaceScalarField phi
    Integral of phi over patch inlet3[7] = -7.4350031e-06

Time = 0.08
    Area vector of patch inlet3[7] = (0 0 -9.0830079e-06)
    Area magnitude of patch inlet3[7] = 9.0830079e-06
    Reading surfaceScalarField phi
    Integral of phi over patch inlet3[7] = -7.416215e-06

Time = 0.09
    Area vector of patch inlet3[7] = (0 0 -9.0830079e-06)
    Area magnitude of patch inlet3[7] = 9.0830079e-06
    Reading surfaceScalarField phi
    Integral of phi over patch inlet3[7] = -7.6999092e-06

Time = 0.1
    Area vector of patch inlet3[7] = (0 0 -9.0830079e-06)
    Area magnitude of patch inlet3[7] = 9.0830079e-06
    Reading surfaceScalarField phi
    Integral of phi over patch inlet3[7] = -7.6776269e-06

Time = 0.11
    Area vector of patch inlet3[7] = (0 0 -9.0830079e-06)
    Area magnitude of patch inlet3[7] = 9.0830079e-06
    Reading surfaceScalarField phi
    Integral of phi over patch inlet3[7] = -7.845011e-06

Time = 0.12
    Area vector of patch inlet3[7] = (0 0 -9.0830079e-06)
    Area magnitude of patch inlet3[7] = 9.0830079e-06
    Reading surfaceScalarField phi
    Integral of phi over patch inlet3[7] = -7.8780562e-06

Time = 0.13
    Area vector of patch inlet3[7] = (0 0 -9.0830079e-06)
    Area magnitude of patch inlet3[7] = 9.0830079e-06
    Reading surfaceScalarField phi
    Integral of phi over patch inlet3[7] = -7.9310512e-06

Time = 0.14
    Area vector of patch inlet3[7] = (0 0 -9.0830079e-06)
    Area magnitude of patch inlet3[7] = 9.0830079e-06
    Reading surfaceScalarField phi
    Integral of phi over patch inlet3[7] = -7.978013e-06

Time = 0.15
    Area vector of patch inlet3[7] = (0 0 -9.0830079e-06)
    Area magnitude of patch inlet3[7] = 9.0830079e-06
    Reading surfaceScalarField phi
    Integral of phi over patch inlet3[7] = -8.0558986e-06

Time = 0.16
    Area vector of patch inlet3[7] = (0 0 -9.0830079e-06)
    Area magnitude of patch inlet3[7] = 9.0830079e-06
    Reading surfaceScalarField phi
    Integral of phi over patch inlet3[7] = -8.2341766e-06

Time = 0.17
    Area vector of patch inlet3[7] = (0 0 -9.0830079e-06)
    Area magnitude of patch inlet3[7] = 9.0830079e-06
    Reading surfaceScalarField phi
    Integral of phi over patch inlet3[7] = -8.229169e-06

Time = 0.18
    Area vector of patch inlet3[7] = (0 0 -9.0830079e-06)
    Area magnitude of patch inlet3[7] = 9.0830079e-06
    Reading surfaceScalarField phi
    Integral of phi over patch inlet3[7] = -8.3095571e-06

Time = 0.19
    Area vector of patch inlet3[7] = (0 0 -9.0830079e-06)
    Area magnitude of patch inlet3[7] = 9.0830079e-06
    Reading surfaceScalarField phi
    Integral of phi over patch inlet3[7] = -8.2975404e-06

Time = 0.2
    Area vector of patch inlet3[7] = (0 0 -9.0830079e-06)
    Area magnitude of patch inlet3[7] = 9.0830079e-06
    Reading surfaceScalarField phi
    Integral of phi over patch inlet3[7] = -8.4540927e-06

Time = 0.21
    Area vector of patch inlet3[7] = (0 0 -9.0830079e-06)
    Area magnitude of patch inlet3[7] = 9.0830079e-06
    Reading surfaceScalarField phi
    Integral of phi over patch inlet3[7] = -8.5091441e-06

Time = 0.22
    Area vector of patch inlet3[7] = (0 0 -9.0830079e-06)
    Area magnitude of patch inlet3[7] = 9.0830079e-06
    Reading surfaceScalarField phi
    Integral of phi over patch inlet3[7] = -8.5717485e-06

Time = 0.23
    Area vector of patch inlet3[7] = (0 0 -9.0830079e-06)
    Area magnitude of patch inlet3[7] = 9.0830079e-06
    Reading surfaceScalarField phi
    Integral of phi over patch inlet3[7] = -8.6266495e-06

Time = 0.24
    Area vector of patch inlet3[7] = (0 0 -9.0830079e-06)
    Area magnitude of patch inlet3[7] = 9.0830079e-06
    Reading surfaceScalarField phi
    Integral of phi over patch inlet3[7] = -8.6946903e-06

Time = 0.25
    Area vector of patch inlet3[7] = (0 0 -9.0830079e-06)
    Area magnitude of patch inlet3[7] = 9.0830079e-06
    Reading surfaceScalarField phi
    Integral of phi over patch inlet3[7] = -8.7938305e-06

Time = 0.26
    Area vector of patch inlet3[7] = (0 0 -9.0830079e-06)
    Area magnitude of patch inlet3[7] = 9.0830079e-06
    Reading surfaceScalarField phi
    Integral of phi over patch inlet3[7] = -8.8596957e-06

Time = 0.27
    Area vector of patch inlet3[7] = (0 0 -9.0830079e-06)
    Area magnitude of patch inlet3[7] = 9.0830079e-06
    Reading surfaceScalarField phi
    Integral of phi over patch inlet3[7] = -8.8422865e-06

Time = 0.28
    Area vector of patch inlet3[7] = (0 0 -9.0830079e-06)
    Area magnitude of patch inlet3[7] = 9.0830079e-06
    Reading surfaceScalarField phi
    Integral of phi over patch inlet3[7] = -8.9548377e-06

Time = 0.29
    Area vector of patch inlet3[7] = (0 0 -9.0830079e-06)
    Area magnitude of patch inlet3[7] = 9.0830079e-06
    Reading surfaceScalarField phi
    Integral of phi over patch inlet3[7] = -9.0946207e-06

Time = 0.3
    Area vector of patch inlet3[7] = (0 0 -9.0830079e-06)
    Area magnitude of patch inlet3[7] = 9.0830079e-06
    Reading surfaceScalarField phi
    Integral of phi over patch inlet3[7] = -9.0879465e-06

Time = 0.31
    Area vector of patch inlet3[7] = (0 0 -9.0830079e-06)
    Area magnitude of patch inlet3[7] = 9.0830079e-06
    Reading surfaceScalarField phi
    Integral of phi over patch inlet3[7] = -9.1558542e-06

Time = 0.32
    Area vector of patch inlet3[7] = (0 0 -9.0830079e-06)
    Area magnitude of patch inlet3[7] = 9.0830079e-06
    Reading surfaceScalarField phi
    Integral of phi over patch inlet3[7] = -9.2341799e-06

Time = 0.33
    Area vector of patch inlet3[7] = (0 0 -9.0830079e-06)
    Area magnitude of patch inlet3[7] = 9.0830079e-06
    Reading surfaceScalarField phi
    Integral of phi over patch inlet3[7] = -9.3766393e-06

Time = 0.34
    Area vector of patch inlet3[7] = (0 0 -9.0830079e-06)
    Area magnitude of patch inlet3[7] = 9.0830079e-06
    Reading surfaceScalarField phi
    Integral of phi over patch inlet3[7] = -9.3536409e-06

Time = 0.35
    Area vector of patch inlet3[7] = (0 0 -9.0830079e-06)
    Area magnitude of patch inlet3[7] = 9.0830079e-06
    Reading surfaceScalarField phi
    Integral of phi over patch inlet3[7] = -9.3944532e-06

Time = 0.36
    Area vector of patch inlet3[7] = (0 0 -9.0830079e-06)
    Area magnitude of patch inlet3[7] = 9.0830079e-06
    Reading surfaceScalarField phi
    Integral of phi over patch inlet3[7] = -9.5274168e-06

Time = 0.37
    Area vector of patch inlet3[7] = (0 0 -9.0830079e-06)
    Area magnitude of patch inlet3[7] = 9.0830079e-06
    Reading surfaceScalarField phi
    Integral of phi over patch inlet3[7] = -9.5467331e-06

Time = 0.38
    Area vector of patch inlet3[7] = (0 0 -9.0830079e-06)
    Area magnitude of patch inlet3[7] = 9.0830079e-06
    Reading surfaceScalarField phi
    Integral of phi over patch inlet3[7] = -9.6518671e-06

Time = 0.39
    Area vector of patch inlet3[7] = (0 0 -9.0830079e-06)
    Area magnitude of patch inlet3[7] = 9.0830079e-06
    Reading surfaceScalarField phi
    Integral of phi over patch inlet3[7] = -9.6394363e-06

Time = 0.4
    Area vector of patch inlet3[7] = (0 0 -9.0830079e-06)
    Area magnitude of patch inlet3[7] = 9.0830079e-06
    Reading surfaceScalarField phi
    Integral of phi over patch inlet3[7] = -9.7792952e-06

Time = 0.41
    Area vector of patch inlet3[7] = (0 0 -9.0830079e-06)
    Area magnitude of patch inlet3[7] = 9.0830079e-06
    Reading surfaceScalarField phi
    Integral of phi over patch inlet3[7] = -9.8353688e-06

Time = 0.42
    Area vector of patch inlet3[7] = (0 0 -9.0830079e-06)
    Area magnitude of patch inlet3[7] = 9.0830079e-06
    Reading surfaceScalarField phi
    Integral of phi over patch inlet3[7] = -9.865005e-06

Time = 0.43
    Area vector of patch inlet3[7] = (0 0 -9.0830079e-06)
    Area magnitude of patch inlet3[7] = 9.0830079e-06
    Reading surfaceScalarField phi
    Integral of phi over patch inlet3[7] = -9.9018244e-06

Time = 0.44
    Area vector of patch inlet3[7] = (0 0 -9.0830079e-06)
    Area magnitude of patch inlet3[7] = 9.0830079e-06
    Reading surfaceScalarField phi
    Integral of phi over patch inlet3[7] = -1.0038023e-05

Time = 0.45
    Area vector of patch inlet3[7] = (0 0 -9.0830079e-06)
    Area magnitude of patch inlet3[7] = 9.0830079e-06
    Reading surfaceScalarField phi
    Integral of phi over patch inlet3[7] = -1.0050815e-05

Time = 0.46
    Area vector of patch inlet3[7] = (0 0 -9.0830079e-06)
    Area magnitude of patch inlet3[7] = 9.0830079e-06
    Reading surfaceScalarField phi
    Integral of phi over patch inlet3[7] = -1.0141689e-05

Time = 0.47
    Area vector of patch inlet3[7] = (0 0 -9.0830079e-06)
    Area magnitude of patch inlet3[7] = 9.0830079e-06
    Reading surfaceScalarField phi
    Integral of phi over patch inlet3[7] = -1.0139818e-05

Time = 0.48
    Area vector of patch inlet3[7] = (0 0 -9.0830079e-06)
    Area magnitude of patch inlet3[7] = 9.0830079e-06
    Reading surfaceScalarField phi
    Integral of phi over patch inlet3[7] = -1.0214166e-05

Time = 0.49
    Area vector of patch inlet3[7] = (0 0 -9.0830079e-06)
    Area magnitude of patch inlet3[7] = 9.0830079e-06
    Reading surfaceScalarField phi
    Integral of phi over patch inlet3[7] = -1.0329344e-05

Time = 0.5
    Area vector of patch inlet3[7] = (0 0 -9.0830079e-06)
    Area magnitude of patch inlet3[7] = 9.0830079e-06
    Reading surfaceScalarField phi
    Integral of phi over patch inlet3[7] = -1.0323861e-05

Time = 0.51
    Area vector of patch inlet3[7] = (0 0 -9.0830079e-06)
    Area magnitude of patch inlet3[7] = 9.0830079e-06
    Reading surfaceScalarField phi
    Integral of phi over patch inlet3[7] = -1.0417701e-05

Time = 0.52
    Area vector of patch inlet3[7] = (0 0 -9.0830079e-06)
    Area magnitude of patch inlet3[7] = 9.0830079e-06
    Reading surfaceScalarField phi
    Integral of phi over patch inlet3[7] = -1.0524582e-05

Time = 0.53
    Area vector of patch inlet3[7] = (0 0 -9.0830079e-06)
    Area magnitude of patch inlet3[7] = 9.0830079e-06
    Reading surfaceScalarField phi
    Integral of phi over patch inlet3[7] = -1.0508501e-05

Time = 0.54
    Area vector of patch inlet3[7] = (0 0 -9.0830079e-06)
    Area magnitude of patch inlet3[7] = 9.0830079e-06
    Reading surfaceScalarField phi
    Integral of phi over patch inlet3[7] = -1.0597936e-05

Time = 0.55
    Area vector of patch inlet3[7] = (0 0 -9.0830079e-06)
    Area magnitude of patch inlet3[7] = 9.0830079e-06
    Reading surfaceScalarField phi
    Integral of phi over patch inlet3[7] = -1.061013e-05

Time = 0.56
    Area vector of patch inlet3[7] = (0 0 -9.0830079e-06)
    Area magnitude of patch inlet3[7] = 9.0830079e-06
    Reading surfaceScalarField phi
    Integral of phi over patch inlet3[7] = -1.0665897e-05

Time = 0.57
    Area vector of patch inlet3[7] = (0 0 -9.0830079e-06)
    Area magnitude of patch inlet3[7] = 9.0830079e-06
    Reading surfaceScalarField phi
    Integral of phi over patch inlet3[7] = -1.0765106e-05

Time = 0.58
    Area vector of patch inlet3[7] = (0 0 -9.0830079e-06)
    Area magnitude of patch inlet3[7] = 9.0830079e-06
    Reading surfaceScalarField phi
    Integral of phi over patch inlet3[7] = -1.083294e-05

Time = 0.59
    Area vector of patch inlet3[7] = (0 0 -9.0830079e-06)
    Area magnitude of patch inlet3[7] = 9.0830079e-06
    Reading surfaceScalarField phi
    Integral of phi over patch inlet3[7] = -1.0845445e-05

Time = 0.6
    Area vector of patch inlet3[7] = (0 0 -9.0830079e-06)
    Area magnitude of patch inlet3[7] = 9.0830079e-06
    Reading surfaceScalarField phi
    Integral of phi over patch inlet3[7] = -1.0984452e-05

Time = 0.61
    Area vector of patch inlet3[7] = (0 0 -9.0830079e-06)
    Area magnitude of patch inlet3[7] = 9.0830079e-06
    Reading surfaceScalarField phi
    Integral of phi over patch inlet3[7] = -1.0965805e-05

Time = 0.62
    Area vector of patch inlet3[7] = (0 0 -9.0830079e-06)
    Area magnitude of patch inlet3[7] = 9.0830079e-06
    Reading surfaceScalarField phi
    Integral of phi over patch inlet3[7] = -1.104109e-05

Time = 0.63
    Area vector of patch inlet3[7] = (0 0 -9.0830079e-06)
    Area magnitude of patch inlet3[7] = 9.0830079e-06
    Reading surfaceScalarField phi
    Integral of phi over patch inlet3[7] = -1.1114499e-05

Time = 0.64
    Area vector of patch inlet3[7] = (0 0 -9.0830079e-06)
    Area magnitude of patch inlet3[7] = 9.0830079e-06
    Reading surfaceScalarField phi
    Integral of phi over patch inlet3[7] = -1.1192605e-05

Time = 0.65
    Area vector of patch inlet3[7] = (0 0 -9.0830079e-06)
    Area magnitude of patch inlet3[7] = 9.0830079e-06
    Reading surfaceScalarField phi
    Integral of phi over patch inlet3[7] = -1.1209531e-05

Time = 0.66
    Area vector of patch inlet3[7] = (0 0 -9.0830079e-06)
    Area magnitude of patch inlet3[7] = 9.0830079e-06
    Reading surfaceScalarField phi
    Integral of phi over patch inlet3[7] = -1.1295392e-05

Time = 0.67
    Area vector of patch inlet3[7] = (0 0 -9.0830079e-06)
    Area magnitude of patch inlet3[7] = 9.0830079e-06
    Reading surfaceScalarField phi
    Integral of phi over patch inlet3[7] = -1.1286343e-05

Time = 0.68
    Area vector of patch inlet3[7] = (0 0 -9.0830079e-06)
    Area magnitude of patch inlet3[7] = 9.0830079e-06
    Reading surfaceScalarField phi
    Integral of phi over patch inlet3[7] = -1.1404245e-05

Time = 0.69
    Area vector of patch inlet3[7] = (0 0 -9.0830079e-06)
    Area magnitude of patch inlet3[7] = 9.0830079e-06
    Reading surfaceScalarField phi
    Integral of phi over patch inlet3[7] = -1.1419961e-05

Time = 0.7
    Area vector of patch inlet3[7] = (0 0 -9.0830079e-06)
    Area magnitude of patch inlet3[7] = 9.0830079e-06
    Reading surfaceScalarField phi
    Integral of phi over patch inlet3[7] = -1.146115e-05

Time = 0.71
    Area vector of patch inlet3[7] = (0 0 -9.0830079e-06)
    Area magnitude of patch inlet3[7] = 9.0830079e-06
    Reading surfaceScalarField phi
    Integral of phi over patch inlet3[7] = -1.16333e-05

Time = 0.72
    Area vector of patch inlet3[7] = (0 0 -9.0830079e-06)
    Area magnitude of patch inlet3[7] = 9.0830079e-06
    Reading surfaceScalarField phi
    Integral of phi over patch inlet3[7] = -1.1583848e-05

Time = 0.73
    Area vector of patch inlet3[7] = (0 0 -9.0830079e-06)
    Area magnitude of patch inlet3[7] = 9.0830079e-06
    Reading surfaceScalarField phi
    Integral of phi over patch inlet3[7] = -1.1641366e-05

Time = 0.74
    Area vector of patch inlet3[7] = (0 0 -9.0830079e-06)
    Area magnitude of patch inlet3[7] = 9.0830079e-06
    Reading surfaceScalarField phi
    Integral of phi over patch inlet3[7] = -1.1820911e-05

Time = 0.75
    Area vector of patch inlet3[7] = (0 0 -9.0830079e-06)
    Area magnitude of patch inlet3[7] = 9.0830079e-06
    Reading surfaceScalarField phi
    Integral of phi over patch inlet3[7] = -1.1774696e-05

Time = 0.76
    Area vector of patch inlet3[7] = (0 0 -9.0830079e-06)
    Area magnitude of patch inlet3[7] = 9.0830079e-06
    Reading surfaceScalarField phi
    Integral of phi over patch inlet3[7] = -1.1828965e-05

Time = 0.77
    Area vector of patch inlet3[7] = (0 0 -9.0830079e-06)
    Area magnitude of patch inlet3[7] = 9.0830079e-06
    Reading surfaceScalarField phi
    Integral of phi over patch inlet3[7] = -1.1968626e-05

Time = 0.78
    Area vector of patch inlet3[7] = (0 0 -9.0830079e-06)
    Area magnitude of patch inlet3[7] = 9.0830079e-06
    Reading surfaceScalarField phi
    Integral of phi over patch inlet3[7] = -1.1856044e-05

Time = 0.79
    Area vector of patch inlet3[7] = (0 0 -9.0830079e-06)
    Area magnitude of patch inlet3[7] = 9.0830079e-06
    Reading surfaceScalarField phi
    Integral of phi over patch inlet3[7] = -1.2053215e-05

Time = 0.8
    Area vector of patch inlet3[7] = (0 0 -9.0830079e-06)
    Area magnitude of patch inlet3[7] = 9.0830079e-06
    Reading surfaceScalarField phi
    Integral of phi over patch inlet3[7] = -1.2029413e-05

Time = 0.81
    Area vector of patch inlet3[7] = (0 0 -9.0830079e-06)
    Area magnitude of patch inlet3[7] = 9.0830079e-06
    Reading surfaceScalarField phi
    Integral of phi over patch inlet3[7] = -1.2007893e-05

Time = 0.82
    Area vector of patch inlet3[7] = (0 0 -9.0830079e-06)
    Area magnitude of patch inlet3[7] = 9.0830079e-06
    Reading surfaceScalarField phi
    Integral of phi over patch inlet3[7] = -1.2070555e-05

Time = 0.83
    Area vector of patch inlet3[7] = (0 0 -9.0830079e-06)
    Area magnitude of patch inlet3[7] = 9.0830079e-06
    Reading surfaceScalarField phi
    Integral of phi over patch inlet3[7] = -1.2215649e-05

Time = 0.84
    Area vector of patch inlet3[7] = (0 0 -9.0830079e-06)
    Area magnitude of patch inlet3[7] = 9.0830079e-06
    Reading surfaceScalarField phi
    Integral of phi over patch inlet3[7] = -1.2136289e-05

Time = 0.85
    Area vector of patch inlet3[7] = (0 0 -9.0830079e-06)
    Area magnitude of patch inlet3[7] = 9.0830079e-06
    Reading surfaceScalarField phi
    Integral of phi over patch inlet3[7] = -1.2388957e-05

Time = 0.86
    Area vector of patch inlet3[7] = (0 0 -9.0830079e-06)
    Area magnitude of patch inlet3[7] = 9.0830079e-06
    Reading surfaceScalarField phi
    Integral of phi over patch inlet3[7] = -1.2284959e-05

Time = 0.87
    Area vector of patch inlet3[7] = (0 0 -9.0830079e-06)
    Area magnitude of patch inlet3[7] = 9.0830079e-06
    Reading surfaceScalarField phi
    Integral of phi over patch inlet3[7] = -1.2379685e-05

Time = 0.88
    Area vector of patch inlet3[7] = (0 0 -9.0830079e-06)
    Area magnitude of patch inlet3[7] = 9.0830079e-06
    Reading surfaceScalarField phi
    Integral of phi over patch inlet3[7] = -1.2490129e-05

Time = 0.89
    Area vector of patch inlet3[7] = (0 0 -9.0830079e-06)
    Area magnitude of patch inlet3[7] = 9.0830079e-06
    Reading surfaceScalarField phi
    Integral of phi over patch inlet3[7] = -1.2462721e-05

Time = 0.9
    Area vector of patch inlet3[7] = (0 0 -9.0830079e-06)
    Area magnitude of patch inlet3[7] = 9.0830079e-06
    Reading surfaceScalarField phi
    Integral of phi over patch inlet3[7] = -1.2446948e-05

Time = 0.91
    Area vector of patch inlet3[7] = (0 0 -9.0830079e-06)
    Area magnitude of patch inlet3[7] = 9.0830079e-06
    Reading surfaceScalarField phi
    Integral of phi over patch inlet3[7] = -1.2600857e-05

Time = 0.92
    Area vector of patch inlet3[7] = (0 0 -9.0830079e-06)
    Area magnitude of patch inlet3[7] = 9.0830079e-06
    Reading surfaceScalarField phi
    Integral of phi over patch inlet3[7] = -1.262234e-05

Time = 0.93
    Area vector of patch inlet3[7] = (0 0 -9.0830079e-06)
    Area magnitude of patch inlet3[7] = 9.0830079e-06
    Reading surfaceScalarField phi
    Integral of phi over patch inlet3[7] = -1.2628551e-05

Time = 0.94
    Area vector of patch inlet3[7] = (0 0 -9.0830079e-06)
    Area magnitude of patch inlet3[7] = 9.0830079e-06
    Reading surfaceScalarField phi
    Integral of phi over patch inlet3[7] = -1.2687988e-05

Time = 0.95
    Area vector of patch inlet3[7] = (0 0 -9.0830079e-06)
    Area magnitude of patch inlet3[7] = 9.0830079e-06
    Reading surfaceScalarField phi
    Integral of phi over patch inlet3[7] = -1.2813737e-05

Time = 0.96
    Area vector of patch inlet3[7] = (0 0 -9.0830079e-06)
    Area magnitude of patch inlet3[7] = 9.0830079e-06
    Reading surfaceScalarField phi
    Integral of phi over patch inlet3[7] = -1.2849709e-05

Time = 0.97
    Area vector of patch inlet3[7] = (0 0 -9.0830079e-06)
    Area magnitude of patch inlet3[7] = 9.0830079e-06
    Reading surfaceScalarField phi
    Integral of phi over patch inlet3[7] = -1.28436e-05

Time = 0.98
    Area vector of patch inlet3[7] = (0 0 -9.0830079e-06)
    Area magnitude of patch inlet3[7] = 9.0830079e-06
    Reading surfaceScalarField phi
    Integral of phi over patch inlet3[7] = -1.2854343e-05

Time = 0.99
    Area vector of patch inlet3[7] = (0 0 -9.0830079e-06)
    Area magnitude of patch inlet3[7] = 9.0830079e-06
    Reading surfaceScalarField phi
    Integral of phi over patch inlet3[7] = -1.2859365e-05

Time = 1
    Area vector of patch inlet3[7] = (0 0 -9.0830079e-06)
    Area magnitude of patch inlet3[7] = 9.0830079e-06
    Reading surfaceScalarField phi
    Integral of phi over patch inlet3[7] = -1.286501e-05

Time = 1.01
    Area vector of patch inlet3[7] = (0 0 -9.0830079e-06)
    Area magnitude of patch inlet3[7] = 9.0830079e-06
    Reading surfaceScalarField phi
    Integral of phi over patch inlet3[7] = -1.2991576e-05

Time = 1.02
    Area vector of patch inlet3[7] = (0 0 -9.0830079e-06)
    Area magnitude of patch inlet3[7] = 9.0830079e-06
    Reading surfaceScalarField phi
    Integral of phi over patch inlet3[7] = -1.307208e-05

Time = 1.03
    Area vector of patch inlet3[7] = (0 0 -9.0830079e-06)
    Area magnitude of patch inlet3[7] = 9.0830079e-06
    Reading surfaceScalarField phi
    Integral of phi over patch inlet3[7] = -1.292049e-05

Time = 1.04
    Area vector of patch inlet3[7] = (0 0 -9.0830079e-06)
    Area magnitude of patch inlet3[7] = 9.0830079e-06
    Reading surfaceScalarField phi
    Integral of phi over patch inlet3[7] = -1.3050409e-05

Time = 1.05
    Area vector of patch inlet3[7] = (0 0 -9.0830079e-06)
    Area magnitude of patch inlet3[7] = 9.0830079e-06
    Reading surfaceScalarField phi
    Integral of phi over patch inlet3[7] = -1.323774e-05

Time = 1.06
    Area vector of patch inlet3[7] = (0 0 -9.0830079e-06)
    Area magnitude of patch inlet3[7] = 9.0830079e-06
    Reading surfaceScalarField phi
    Integral of phi over patch inlet3[7] = -1.3042781e-05

Time = 1.07
    Area vector of patch inlet3[7] = (0 0 -9.0830079e-06)
    Area magnitude of patch inlet3[7] = 9.0830079e-06
    Reading surfaceScalarField phi
    Integral of phi over patch inlet3[7] = -1.330935e-05

Time = 1.08
    Area vector of patch inlet3[7] = (0 0 -9.0830079e-06)
    Area magnitude of patch inlet3[7] = 9.0830079e-06
    Reading surfaceScalarField phi
    Integral of phi over patch inlet3[7] = -1.3268711e-05

Time = 1.09
    Area vector of patch inlet3[7] = (0 0 -9.0830079e-06)
    Area magnitude of patch inlet3[7] = 9.0830079e-06
    Reading surfaceScalarField phi
    Integral of phi over patch inlet3[7] = -1.3198123e-05

Time = 1.1
    Area vector of patch inlet3[7] = (0 0 -9.0830079e-06)
    Area magnitude of patch inlet3[7] = 9.0830079e-06
    Reading surfaceScalarField phi
    Integral of phi over patch inlet3[7] = -1.3414168e-05

Time = 1.11
    Area vector of patch inlet3[7] = (0 0 -9.0830079e-06)
    Area magnitude of patch inlet3[7] = 9.0830079e-06
    Reading surfaceScalarField phi
    Integral of phi over patch inlet3[7] = -1.3284925e-05

Time = 1.12
    Area vector of patch inlet3[7] = (0 0 -9.0830079e-06)
    Area magnitude of patch inlet3[7] = 9.0830079e-06
    Reading surfaceScalarField phi
    Integral of phi over patch inlet3[7] = -1.3329303e-05

Time = 1.13
    Area vector of patch inlet3[7] = (0 0 -9.0830079e-06)
    Area magnitude of patch inlet3[7] = 9.0830079e-06
    Reading surfaceScalarField phi
    Integral of phi over patch inlet3[7] = -1.345788e-05

Time = 1.14
    Area vector of patch inlet3[7] = (0 0 -9.0830079e-06)
    Area magnitude of patch inlet3[7] = 9.0830079e-06
    Reading surfaceScalarField phi
    Integral of phi over patch inlet3[7] = -1.3334755e-05

Time = 1.15
    Area vector of patch inlet3[7] = (0 0 -9.0830079e-06)
    Area magnitude of patch inlet3[7] = 9.0830079e-06
    Reading surfaceScalarField phi
    Integral of phi over patch inlet3[7] = -1.346701e-05

Time = 1.16
    Area vector of patch inlet3[7] = (0 0 -9.0830079e-06)
    Area magnitude of patch inlet3[7] = 9.0830079e-06
    Reading surfaceScalarField phi
    Integral of phi over patch inlet3[7] = -1.353592e-05

Time = 1.17
    Area vector of patch inlet3[7] = (0 0 -9.0830079e-06)
    Area magnitude of patch inlet3[7] = 9.0830079e-06
    Reading surfaceScalarField phi
    Integral of phi over patch inlet3[7] = -1.3493014e-05

Time = 1.18
    Area vector of patch inlet3[7] = (0 0 -9.0830079e-06)
    Area magnitude of patch inlet3[7] = 9.0830079e-06
    Reading surfaceScalarField phi
    Integral of phi over patch inlet3[7] = -1.3653425e-05

Time = 1.19
    Area vector of patch inlet3[7] = (0 0 -9.0830079e-06)
    Area magnitude of patch inlet3[7] = 9.0830079e-06
    Reading surfaceScalarField phi
    Integral of phi over patch inlet3[7] = -1.3554627e-05

Time = 1.2
    Area vector of patch inlet3[7] = (0 0 -9.0830079e-06)
    Area magnitude of patch inlet3[7] = 9.0830079e-06
    Reading surfaceScalarField phi
    Integral of phi over patch inlet3[7] = -1.350236e-05

Time = 1.21
    Area vector of patch inlet3[7] = (0 0 -9.0830079e-06)
    Area magnitude of patch inlet3[7] = 9.0830079e-06
    Reading surfaceScalarField phi
    Integral of phi over patch inlet3[7] = -1.3677697e-05

Time = 1.22
    Area vector of patch inlet3[7] = (0 0 -9.0830079e-06)
    Area magnitude of patch inlet3[7] = 9.0830079e-06
    Reading surfaceScalarField phi
    Integral of phi over patch inlet3[7] = -1.367658e-05

Time = 1.23
    Area vector of patch inlet3[7] = (0 0 -9.0830079e-06)
    Area magnitude of patch inlet3[7] = 9.0830079e-06
    Reading surfaceScalarField phi
    Integral of phi over patch inlet3[7] = -1.3694316e-05

Time = 1.24
    Area vector of patch inlet3[7] = (0 0 -9.0830079e-06)
    Area magnitude of patch inlet3[7] = 9.0830079e-06
    Reading surfaceScalarField phi
    Integral of phi over patch inlet3[7] = -1.3789779e-05

Time = 1.25
    Area vector of patch inlet3[7] = (0 0 -9.0830079e-06)
    Area magnitude of patch inlet3[7] = 9.0830079e-06
    Reading surfaceScalarField phi
    Integral of phi over patch inlet3[7] = -1.3709546e-05

Time = 1.26
    Area vector of patch inlet3[7] = (0 0 -9.0830079e-06)
    Area magnitude of patch inlet3[7] = 9.0830079e-06
    Reading surfaceScalarField phi
    Integral of phi over patch inlet3[7] = -1.3784949e-05

Time = 1.27
    Area vector of patch inlet3[7] = (0 0 -9.0830079e-06)
    Area magnitude of patch inlet3[7] = 9.0830079e-06
    Reading surfaceScalarField phi
    Integral of phi over patch inlet3[7] = -1.3821969e-05

Time = 1.28
    Area vector of patch inlet3[7] = (0 0 -9.0830079e-06)
    Area magnitude of patch inlet3[7] = 9.0830079e-06
    Reading surfaceScalarField phi
    Integral of phi over patch inlet3[7] = -1.3760144e-05

Time = 1.29
    Area vector of patch inlet3[7] = (0 0 -9.0830079e-06)
    Area magnitude of patch inlet3[7] = 9.0830079e-06
    Reading surfaceScalarField phi
    Integral of phi over patch inlet3[7] = -1.3926127e-05

Time = 1.3
    Area vector of patch inlet3[7] = (0 0 -9.0830079e-06)
    Area magnitude of patch inlet3[7] = 9.0830079e-06
    Reading surfaceScalarField phi
    Integral of phi over patch inlet3[7] = -1.3844878e-05

Time = 1.31
    Area vector of patch inlet3[7] = (0 0 -9.0830079e-06)
    Area magnitude of patch inlet3[7] = 9.0830079e-06
    Reading surfaceScalarField phi
    Integral of phi over patch inlet3[7] = -1.3890152e-05

Time = 1.32
    Area vector of patch inlet3[7] = (0 0 -9.0830079e-06)
    Area magnitude of patch inlet3[7] = 9.0830079e-06
    Reading surfaceScalarField phi
    Integral of phi over patch inlet3[7] = -1.3997803e-05

Time = 1.33
    Area vector of patch inlet3[7] = (0 0 -9.0830079e-06)
    Area magnitude of patch inlet3[7] = 9.0830079e-06
    Reading surfaceScalarField phi
    Integral of phi over patch inlet3[7] = -1.3873911e-05

Time = 1.34
    Area vector of patch inlet3[7] = (0 0 -9.0830079e-06)
    Area magnitude of patch inlet3[7] = 9.0830079e-06
    Reading surfaceScalarField phi
    Integral of phi over patch inlet3[7] = -1.3929982e-05

Time = 1.35
    Area vector of patch inlet3[7] = (0 0 -9.0830079e-06)
    Area magnitude of patch inlet3[7] = 9.0830079e-06
    Reading surfaceScalarField phi
    Integral of phi over patch inlet3[7] = -1.3974351e-05

Time = 1.36
    Area vector of patch inlet3[7] = (0 0 -9.0830079e-06)
    Area magnitude of patch inlet3[7] = 9.0830079e-06
    Reading surfaceScalarField phi
    Integral of phi over patch inlet3[7] = -1.4006294e-05

Time = 1.37
    Area vector of patch inlet3[7] = (0 0 -9.0830079e-06)
    Area magnitude of patch inlet3[7] = 9.0830079e-06
    Reading surfaceScalarField phi
    Integral of phi over patch inlet3[7] = -1.3928543e-05

Time = 1.38
    Area vector of patch inlet3[7] = (0 0 -9.0830079e-06)
    Area magnitude of patch inlet3[7] = 9.0830079e-06
    Reading surfaceScalarField phi
    Integral of phi over patch inlet3[7] = -1.4048943e-05

Time = 1.39
    Area vector of patch inlet3[7] = (0 0 -9.0830079e-06)
    Area magnitude of patch inlet3[7] = 9.0830079e-06
    Reading surfaceScalarField phi
    Integral of phi over patch inlet3[7] = -1.4051406e-05

Time = 1.4
    Area vector of patch inlet3[7] = (0 0 -9.0830079e-06)
    Area magnitude of patch inlet3[7] = 9.0830079e-06
    Reading surfaceScalarField phi
    Integral of phi over patch inlet3[7] = -1.3919591e-05

Time = 1.41
    Area vector of patch inlet3[7] = (0 0 -9.0830079e-06)
    Area magnitude of patch inlet3[7] = 9.0830079e-06
    Reading surfaceScalarField phi
    Integral of phi over patch inlet3[7] = -1.4080394e-05

Time = 1.42
    Area vector of patch inlet3[7] = (0 0 -9.0830079e-06)
    Area magnitude of patch inlet3[7] = 9.0830079e-06
    Reading surfaceScalarField phi
    Integral of phi over patch inlet3[7] = -1.3995424e-05

Time = 1.43
    Area vector of patch inlet3[7] = (0 0 -9.0830079e-06)
    Area magnitude of patch inlet3[7] = 9.0830079e-06
    Reading surfaceScalarField phi
    Integral of phi over patch inlet3[7] = -1.4144773e-05

Time = 1.44
    Area vector of patch inlet3[7] = (0 0 -9.0830079e-06)
    Area magnitude of patch inlet3[7] = 9.0830079e-06
    Reading surfaceScalarField phi
    Integral of phi over patch inlet3[7] = -1.4089354e-05

Time = 1.45
    Area vector of patch inlet3[7] = (0 0 -9.0830079e-06)
    Area magnitude of patch inlet3[7] = 9.0830079e-06
    Reading surfaceScalarField phi
    Integral of phi over patch inlet3[7] = -1.4160417e-05

Time = 1.46
    Area vector of patch inlet3[7] = (0 0 -9.0830079e-06)
    Area magnitude of patch inlet3[7] = 9.0830079e-06
    Reading surfaceScalarField phi
    Integral of phi over patch inlet3[7] = -1.4247592e-05

Time = 1.47
    Area vector of patch inlet3[7] = (0 0 -9.0830079e-06)
    Area magnitude of patch inlet3[7] = 9.0830079e-06
    Reading surfaceScalarField phi
    Integral of phi over patch inlet3[7] = -1.4023095e-05

Time = 1.48
    Area vector of patch inlet3[7] = (0 0 -9.0830079e-06)
    Area magnitude of patch inlet3[7] = 9.0830079e-06
    Reading surfaceScalarField phi
    Integral of phi over patch inlet3[7] = -1.42081e-05

Time = 1.49
    Area vector of patch inlet3[7] = (0 0 -9.0830079e-06)
    Area magnitude of patch inlet3[7] = 9.0830079e-06
    Reading surfaceScalarField phi
    Integral of phi over patch inlet3[7] = -1.4165884e-05

Time = 1.5
    Area vector of patch inlet3[7] = (0 0 -9.0830079e-06)
    Area magnitude of patch inlet3[7] = 9.0830079e-06
    Reading surfaceScalarField phi
    Integral of phi over patch inlet3[7] = -1.4237577e-05

Time = 1.51
    Area vector of patch inlet3[7] = (0 0 -9.0830079e-06)
    Area magnitude of patch inlet3[7] = 9.0830079e-06
    Reading surfaceScalarField phi
    Integral of phi over patch inlet3[7] = -1.4354431e-05

Time = 1.52
    Area vector of patch inlet3[7] = (0 0 -9.0830079e-06)
    Area magnitude of patch inlet3[7] = 9.0830079e-06
    Reading surfaceScalarField phi
    Integral of phi over patch inlet3[7] = -1.422894e-05

Time = 1.53
    Area vector of patch inlet3[7] = (0 0 -9.0830079e-06)
    Area magnitude of patch inlet3[7] = 9.0830079e-06
    Reading surfaceScalarField phi
    Integral of phi over patch inlet3[7] = -1.439305e-05

Time = 1.54
    Area vector of patch inlet3[7] = (0 0 -9.0830079e-06)
    Area magnitude of patch inlet3[7] = 9.0830079e-06
    Reading surfaceScalarField phi
    Integral of phi over patch inlet3[7] = -1.4264548e-05

Time = 1.55
    Area vector of patch inlet3[7] = (0 0 -9.0830079e-06)
    Area magnitude of patch inlet3[7] = 9.0830079e-06
    Reading surfaceScalarField phi
    Integral of phi over patch inlet3[7] = -1.4201393e-05

Time = 1.56
    Area vector of patch inlet3[7] = (0 0 -9.0830079e-06)
    Area magnitude of patch inlet3[7] = 9.0830079e-06
    Reading surfaceScalarField phi
    Integral of phi over patch inlet3[7] = -1.4479239e-05

Time = 1.57
    Area vector of patch inlet3[7] = (0 0 -9.0830079e-06)
    Area magnitude of patch inlet3[7] = 9.0830079e-06
    Reading surfaceScalarField phi
    Integral of phi over patch inlet3[7] = -1.4251529e-05

Time = 1.58
    Area vector of patch inlet3[7] = (0 0 -9.0830079e-06)
    Area magnitude of patch inlet3[7] = 9.0830079e-06
    Reading surfaceScalarField phi
    Integral of phi over patch inlet3[7] = -1.4496502e-05

Time = 1.59
    Area vector of patch inlet3[7] = (0 0 -9.0830079e-06)
    Area magnitude of patch inlet3[7] = 9.0830079e-06
    Reading surfaceScalarField phi
    Integral of phi over patch inlet3[7] = -1.4392304e-05

Time = 1.6
    Area vector of patch inlet3[7] = (0 0 -9.0830079e-06)
    Area magnitude of patch inlet3[7] = 9.0830079e-06
    Reading surfaceScalarField phi
    Integral of phi over patch inlet3[7] = -1.4285128e-05

Time = 1.61
    Area vector of patch inlet3[7] = (0 0 -9.0830079e-06)
    Area magnitude of patch inlet3[7] = 9.0830079e-06
    Reading surfaceScalarField phi
    Integral of phi over patch inlet3[7] = -1.4565985e-05

Time = 1.62
    Area vector of patch inlet3[7] = (0 0 -9.0830079e-06)
    Area magnitude of patch inlet3[7] = 9.0830079e-06
    Reading surfaceScalarField phi
    Integral of phi over patch inlet3[7] = -1.4322511e-05

Time = 1.63
    Area vector of patch inlet3[7] = (0 0 -9.0830079e-06)
    Area magnitude of patch inlet3[7] = 9.0830079e-06
    Reading surfaceScalarField phi
    Integral of phi over patch inlet3[7] = -1.4633568e-05

Time = 1.64
    Area vector of patch inlet3[7] = (0 0 -9.0830079e-06)
    Area magnitude of patch inlet3[7] = 9.0830079e-06
    Reading surfaceScalarField phi
    Integral of phi over patch inlet3[7] = -1.4406287e-05

Time = 1.65
    Area vector of patch inlet3[7] = (0 0 -9.0830079e-06)
    Area magnitude of patch inlet3[7] = 9.0830079e-06
    Reading surfaceScalarField phi
    Integral of phi over patch inlet3[7] = -1.4620413e-05

Time = 1.66
    Area vector of patch inlet3[7] = (0 0 -9.0830079e-06)
    Area magnitude of patch inlet3[7] = 9.0830079e-06
    Reading surfaceScalarField phi
    Integral of phi over patch inlet3[7] = -1.4663712e-05

Time = 1.67
    Area vector of patch inlet3[7] = (0 0 -9.0830079e-06)
    Area magnitude of patch inlet3[7] = 9.0830079e-06
    Reading surfaceScalarField phi
    Integral of phi over patch inlet3[7] = -1.4370395e-05

Time = 1.68
    Area vector of patch inlet3[7] = (0 0 -9.0830079e-06)
    Area magnitude of patch inlet3[7] = 9.0830079e-06
    Reading surfaceScalarField phi
    Integral of phi over patch inlet3[7] = -1.4716988e-05

Time = 1.69
    Area vector of patch inlet3[7] = (0 0 -9.0830079e-06)
    Area magnitude of patch inlet3[7] = 9.0830079e-06
    Reading surfaceScalarField phi
    Integral of phi over patch inlet3[7] = -1.4471131e-05

Time = 1.7
    Area vector of patch inlet3[7] = (0 0 -9.0830079e-06)
    Area magnitude of patch inlet3[7] = 9.0830079e-06
    Reading surfaceScalarField phi
    Integral of phi over patch inlet3[7] = -1.4604183e-05

Time = 1.71
    Area vector of patch inlet3[7] = (0 0 -9.0830079e-06)
    Area magnitude of patch inlet3[7] = 9.0830079e-06
    Reading surfaceScalarField phi
    Integral of phi over patch inlet3[7] = -1.4759332e-05

Time = 1.72
    Area vector of patch inlet3[7] = (0 0 -9.0830079e-06)
    Area magnitude of patch inlet3[7] = 9.0830079e-06
    Reading surfaceScalarField phi
    Integral of phi over patch inlet3[7] = -1.4533588e-05

Time = 1.73
    Area vector of patch inlet3[7] = (0 0 -9.0830079e-06)
    Area magnitude of patch inlet3[7] = 9.0830079e-06
    Reading surfaceScalarField phi
    Integral of phi over patch inlet3[7] = -1.4777071e-05

Time = 1.74
    Area vector of patch inlet3[7] = (0 0 -9.0830079e-06)
    Area magnitude of patch inlet3[7] = 9.0830079e-06
    Reading surfaceScalarField phi
    Integral of phi over patch inlet3[7] = -1.4641475e-05

Time = 1.75
    Area vector of patch inlet3[7] = (0 0 -9.0830079e-06)
    Area magnitude of patch inlet3[7] = 9.0830079e-06
    Reading surfaceScalarField phi
    Integral of phi over patch inlet3[7] = -1.4668533e-05

Time = 1.76
    Area vector of patch inlet3[7] = (0 0 -9.0830079e-06)
    Area magnitude of patch inlet3[7] = 9.0830079e-06
    Reading surfaceScalarField phi
    Integral of phi over patch inlet3[7] = -1.4791164e-05

Time = 1.77
    Area vector of patch inlet3[7] = (0 0 -9.0830079e-06)
    Area magnitude of patch inlet3[7] = 9.0830079e-06
    Reading surfaceScalarField phi
    Integral of phi over patch inlet3[7] = -1.4754086e-05

Time = 1.78
    Area vector of patch inlet3[7] = (0 0 -9.0830079e-06)
    Area magnitude of patch inlet3[7] = 9.0830079e-06
    Reading surfaceScalarField phi
    Integral of phi over patch inlet3[7] = -1.4859243e-05

Time = 1.79
    Area vector of patch inlet3[7] = (0 0 -9.0830079e-06)
    Area magnitude of patch inlet3[7] = 9.0830079e-06
    Reading surfaceScalarField phi
    Integral of phi over patch inlet3[7] = -1.4663325e-05

Time = 1.8
    Area vector of patch inlet3[7] = (0 0 -9.0830079e-06)
    Area magnitude of patch inlet3[7] = 9.0830079e-06
    Reading surfaceScalarField phi
    Integral of phi over patch inlet3[7] = -1.4945632e-05

Time = 1.81
    Area vector of patch inlet3[7] = (0 0 -9.0830079e-06)
    Area magnitude of patch inlet3[7] = 9.0830079e-06
    Reading surfaceScalarField phi
    Integral of phi over patch inlet3[7] = -1.4785202e-05

Time = 1.82
    Area vector of patch inlet3[7] = (0 0 -9.0830079e-06)
    Area magnitude of patch inlet3[7] = 9.0830079e-06
    Reading surfaceScalarField phi
    Integral of phi over patch inlet3[7] = -1.4677443e-05

Time = 1.83
    Area vector of patch inlet3[7] = (0 0 -9.0830079e-06)
    Area magnitude of patch inlet3[7] = 9.0830079e-06
    Reading surfaceScalarField phi
    Integral of phi over patch inlet3[7] = -1.4964851e-05

Time = 1.84
    Area vector of patch inlet3[7] = (0 0 -9.0830079e-06)
    Area magnitude of patch inlet3[7] = 9.0830079e-06
    Reading surfaceScalarField phi
    Integral of phi over patch inlet3[7] = -1.4850992e-05

Time = 1.85
    Area vector of patch inlet3[7] = (0 0 -9.0830079e-06)
    Area magnitude of patch inlet3[7] = 9.0830079e-06
    Reading surfaceScalarField phi
    Integral of phi over patch inlet3[7] = -1.4886636e-05

Time = 1.86
    Area vector of patch inlet3[7] = (0 0 -9.0830079e-06)
    Area magnitude of patch inlet3[7] = 9.0830079e-06
    Reading surfaceScalarField phi
    Integral of phi over patch inlet3[7] = -1.5068752e-05

Time = 1.87
    Area vector of patch inlet3[7] = (0 0 -9.0830079e-06)
    Area magnitude of patch inlet3[7] = 9.0830079e-06
    Reading surfaceScalarField phi
    Integral of phi over patch inlet3[7] = -1.4857887e-05

Time = 1.88
    Area vector of patch inlet3[7] = (0 0 -9.0830079e-06)
    Area magnitude of patch inlet3[7] = 9.0830079e-06
    Reading surfaceScalarField phi
    Integral of phi over patch inlet3[7] = -1.501137e-05

Time = 1.89
    Area vector of patch inlet3[7] = (0 0 -9.0830079e-06)
    Area magnitude of patch inlet3[7] = 9.0830079e-06
    Reading surfaceScalarField phi
    Integral of phi over patch inlet3[7] = -1.5117533e-05

Time = 1.9
    Area vector of patch inlet3[7] = (0 0 -9.0830079e-06)
    Area magnitude of patch inlet3[7] = 9.0830079e-06
    Reading surfaceScalarField phi
    Integral of phi over patch inlet3[7] = -1.5082689e-05

Time = 1.91
    Area vector of patch inlet3[7] = (0 0 -9.0830079e-06)
    Area magnitude of patch inlet3[7] = 9.0830079e-06
    Reading surfaceScalarField phi
    Integral of phi over patch inlet3[7] = -1.5081384e-05

Time = 1.92
    Area vector of patch inlet3[7] = (0 0 -9.0830079e-06)
    Area magnitude of patch inlet3[7] = 9.0830079e-06
    Reading surfaceScalarField phi
    Integral of phi over patch inlet3[7] = -1.4962278e-05

Time = 1.93
    Area vector of patch inlet3[7] = (0 0 -9.0830079e-06)
    Area magnitude of patch inlet3[7] = 9.0830079e-06
    Reading surfaceScalarField phi
    Integral of phi over patch inlet3[7] = -1.5027665e-05

Time = 1.94
    Area vector of patch inlet3[7] = (0 0 -9.0830079e-06)
    Area magnitude of patch inlet3[7] = 9.0830079e-06
    Reading surfaceScalarField phi
    Integral of phi over patch inlet3[7] = -1.5007235e-05

Time = 1.95
    Area vector of patch inlet3[7] = (0 0 -9.0830079e-06)
    Area magnitude of patch inlet3[7] = 9.0830079e-06
    Reading surfaceScalarField phi
    Integral of phi over patch inlet3[7] = -1.5073181e-05

Time = 1.96
    Area vector of patch inlet3[7] = (0 0 -9.0830079e-06)
    Area magnitude of patch inlet3[7] = 9.0830079e-06
    Reading surfaceScalarField phi
    Integral of phi over patch inlet3[7] = -1.512024e-05

Time = 1.97
    Area vector of patch inlet3[7] = (0 0 -9.0830079e-06)
    Area magnitude of patch inlet3[7] = 9.0830079e-06
    Reading surfaceScalarField phi
    Integral of phi over patch inlet3[7] = -1.5101427e-05

Time = 1.98
    Area vector of patch inlet3[7] = (0 0 -9.0830079e-06)
    Area magnitude of patch inlet3[7] = 9.0830079e-06
    Reading surfaceScalarField phi
    Integral of phi over patch inlet3[7] = -1.5208293e-05

Time = 1.99
    Area vector of patch inlet3[7] = (0 0 -9.0830079e-06)
    Area magnitude of patch inlet3[7] = 9.0830079e-06
    Reading surfaceScalarField phi
    Integral of phi over patch inlet3[7] = -1.518136e-05

Time = 2
    Area vector of patch inlet3[7] = (0 0 -9.0830079e-06)
    Area magnitude of patch inlet3[7] = 9.0830079e-06
    Reading surfaceScalarField phi
    Integral of phi over patch inlet3[7] = -1.5176142e-05

Time = 2.01
    Area vector of patch inlet3[7] = (0 0 -9.0830079e-06)
    Area magnitude of patch inlet3[7] = 9.0830079e-06
    Reading surfaceScalarField phi
    Integral of phi over patch inlet3[7] = -1.5195461e-05

Time = 2.02
    Area vector of patch inlet3[7] = (0 0 -9.0830079e-06)
    Area magnitude of patch inlet3[7] = 9.0830079e-06
    Reading surfaceScalarField phi
    Integral of phi over patch inlet3[7] = -1.530507e-05

Time = 2.03
    Area vector of patch inlet3[7] = (0 0 -9.0830079e-06)
    Area magnitude of patch inlet3[7] = 9.0830079e-06
    Reading surfaceScalarField phi
    Integral of phi over patch inlet3[7] = -1.5162263e-05

Time = 2.04
    Area vector of patch inlet3[7] = (0 0 -9.0830079e-06)
    Area magnitude of patch inlet3[7] = 9.0830079e-06
    Reading surfaceScalarField phi
    Integral of phi over patch inlet3[7] = -1.5122817e-05

Time = 2.05
    Area vector of patch inlet3[7] = (0 0 -9.0830079e-06)
    Area magnitude of patch inlet3[7] = 9.0830079e-06
    Reading surfaceScalarField phi
    Integral of phi over patch inlet3[7] = -1.5201956e-05

Time = 2.06
    Area vector of patch inlet3[7] = (0 0 -9.0830079e-06)
    Area magnitude of patch inlet3[7] = 9.0830079e-06
    Reading surfaceScalarField phi
    Integral of phi over patch inlet3[7] = -1.5329117e-05

Time = 2.07
    Area vector of patch inlet3[7] = (0 0 -9.0830079e-06)
    Area magnitude of patch inlet3[7] = 9.0830079e-06
    Reading surfaceScalarField phi
    Integral of phi over patch inlet3[7] = -1.5370833e-05

Time = 2.08
    Area vector of patch inlet3[7] = (0 0 -9.0830079e-06)
    Area magnitude of patch inlet3[7] = 9.0830079e-06
    Reading surfaceScalarField phi
    Integral of phi over patch inlet3[7] = -1.5198779e-05

Time = 2.09
    Area vector of patch inlet3[7] = (0 0 -9.0830079e-06)
    Area magnitude of patch inlet3[7] = 9.0830079e-06
    Reading surfaceScalarField phi
    Integral of phi over patch inlet3[7] = -1.5296637e-05

Time = 2.1
    Area vector of patch inlet3[7] = (0 0 -9.0830079e-06)
    Area magnitude of patch inlet3[7] = 9.0830079e-06
    Reading surfaceScalarField phi
    Integral of phi over patch inlet3[7] = -1.5415357e-05

Time = 2.11
    Area vector of patch inlet3[7] = (0 0 -9.0830079e-06)
    Area magnitude of patch inlet3[7] = 9.0830079e-06
    Reading surfaceScalarField phi
    Integral of phi over patch inlet3[7] = -1.5371493e-05

Time = 2.12
    Area vector of patch inlet3[7] = (0 0 -9.0830079e-06)
    Area magnitude of patch inlet3[7] = 9.0830079e-06
    Reading surfaceScalarField phi
    Integral of phi over patch inlet3[7] = -1.5389114e-05

Time = 2.13
    Area vector of patch inlet3[7] = (0 0 -9.0830079e-06)
    Area magnitude of patch inlet3[7] = 9.0830079e-06
    Reading surfaceScalarField phi
    Integral of phi over patch inlet3[7] = -1.5485286e-05

Time = 2.14
    Area vector of patch inlet3[7] = (0 0 -9.0830079e-06)
    Area magnitude of patch inlet3[7] = 9.0830079e-06
    Reading surfaceScalarField phi
    Integral of phi over patch inlet3[7] = -1.5414686e-05

Time = 2.15
    Area vector of patch inlet3[7] = (0 0 -9.0830079e-06)
    Area magnitude of patch inlet3[7] = 9.0830079e-06
    Reading surfaceScalarField phi
    Integral of phi over patch inlet3[7] = -1.5344428e-05

Time = 2.16
    Area vector of patch inlet3[7] = (0 0 -9.0830079e-06)
    Area magnitude of patch inlet3[7] = 9.0830079e-06
    Reading surfaceScalarField phi
    Integral of phi over patch inlet3[7] = -1.535433e-05

Time = 2.17
    Area vector of patch inlet3[7] = (0 0 -9.0830079e-06)
    Area magnitude of patch inlet3[7] = 9.0830079e-06
    Reading surfaceScalarField phi
    Integral of phi over patch inlet3[7] = -1.5313627e-05

Time = 2.18
    Area vector of patch inlet3[7] = (0 0 -9.0830079e-06)
    Area magnitude of patch inlet3[7] = 9.0830079e-06
    Reading surfaceScalarField phi
    Integral of phi over patch inlet3[7] = -1.545276e-05

Time = 2.19
    Area vector of patch inlet3[7] = (0 0 -9.0830079e-06)
    Area magnitude of patch inlet3[7] = 9.0830079e-06
    Reading surfaceScalarField phi
    Integral of phi over patch inlet3[7] = -1.5464226e-05

Time = 2.2
    Area vector of patch inlet3[7] = (0 0 -9.0830079e-06)
    Area magnitude of patch inlet3[7] = 9.0830079e-06
    Reading surfaceScalarField phi
    Integral of phi over patch inlet3[7] = -1.5418038e-05

Time = 2.21
    Area vector of patch inlet3[7] = (0 0 -9.0830079e-06)
    Area magnitude of patch inlet3[7] = 9.0830079e-06
    Reading surfaceScalarField phi
    Integral of phi over patch inlet3[7] = -1.5529118e-05

Time = 2.22
    Area vector of patch inlet3[7] = (0 0 -9.0830079e-06)
    Area magnitude of patch inlet3[7] = 9.0830079e-06
    Reading surfaceScalarField phi
    Integral of phi over patch inlet3[7] = -1.5384858e-05

Time = 2.23
    Area vector of patch inlet3[7] = (0 0 -9.0830079e-06)
    Area magnitude of patch inlet3[7] = 9.0830079e-06
    Reading surfaceScalarField phi
    Integral of phi over patch inlet3[7] = -1.539875e-05

Time = 2.24
    Area vector of patch inlet3[7] = (0 0 -9.0830079e-06)
    Area magnitude of patch inlet3[7] = 9.0830079e-06
    Reading surfaceScalarField phi
    Integral of phi over patch inlet3[7] = -1.5560975e-05

Time = 2.25
    Area vector of patch inlet3[7] = (0 0 -9.0830079e-06)
    Area magnitude of patch inlet3[7] = 9.0830079e-06
    Reading surfaceScalarField phi
    Integral of phi over patch inlet3[7] = -1.5516024e-05

Time = 2.26
    Area vector of patch inlet3[7] = (0 0 -9.0830079e-06)
    Area magnitude of patch inlet3[7] = 9.0830079e-06
    Reading surfaceScalarField phi
    Integral of phi over patch inlet3[7] = -1.5620484e-05

Time = 2.27
    Area vector of patch inlet3[7] = (0 0 -9.0830079e-06)
    Area magnitude of patch inlet3[7] = 9.0830079e-06
    Reading surfaceScalarField phi
    Integral of phi over patch inlet3[7] = -1.5544095e-05

Time = 2.28
    Area vector of patch inlet3[7] = (0 0 -9.0830079e-06)
    Area magnitude of patch inlet3[7] = 9.0830079e-06
    Reading surfaceScalarField phi
    Integral of phi over patch inlet3[7] = -1.5553311e-05

Time = 2.29
    Area vector of patch inlet3[7] = (0 0 -9.0830079e-06)
    Area magnitude of patch inlet3[7] = 9.0830079e-06
    Reading surfaceScalarField phi
    Integral of phi over patch inlet3[7] = -1.5567953e-05

Time = 2.3
    Area vector of patch inlet3[7] = (0 0 -9.0830079e-06)
    Area magnitude of patch inlet3[7] = 9.0830079e-06
    Reading surfaceScalarField phi
    Integral of phi over patch inlet3[7] = -1.5483276e-05

Time = 2.31
    Area vector of patch inlet3[7] = (0 0 -9.0830079e-06)
    Area magnitude of patch inlet3[7] = 9.0830079e-06
    Reading surfaceScalarField phi
    Integral of phi over patch inlet3[7] = -1.5584247e-05

Time = 2.32
    Area vector of patch inlet3[7] = (0 0 -9.0830079e-06)
    Area magnitude of patch inlet3[7] = 9.0830079e-06
    Reading surfaceScalarField phi
    Integral of phi over patch inlet3[7] = -1.5585158e-05

Time = 2.33
    Area vector of patch inlet3[7] = (0 0 -9.0830079e-06)
    Area magnitude of patch inlet3[7] = 9.0830079e-06
    Reading surfaceScalarField phi
    Integral of phi over patch inlet3[7] = -1.5663921e-05

Time = 2.34
    Area vector of patch inlet3[7] = (0 0 -9.0830079e-06)
    Area magnitude of patch inlet3[7] = 9.0830079e-06
    Reading surfaceScalarField phi
    Integral of phi over patch inlet3[7] = -1.5532442e-05

Time = 2.35
    Area vector of patch inlet3[7] = (0 0 -9.0830079e-06)
    Area magnitude of patch inlet3[7] = 9.0830079e-06
    Reading surfaceScalarField phi
    Integral of phi over patch inlet3[7] = -1.5565251e-05

Time = 2.36
    Area vector of patch inlet3[7] = (0 0 -9.0830079e-06)
    Area magnitude of patch inlet3[7] = 9.0830079e-06
    Reading surfaceScalarField phi
    Integral of phi over patch inlet3[7] = -1.5611016e-05

Time = 2.37
    Area vector of patch inlet3[7] = (0 0 -9.0830079e-06)
    Area magnitude of patch inlet3[7] = 9.0830079e-06
    Reading surfaceScalarField phi
    Integral of phi over patch inlet3[7] = -1.5473581e-05

Time = 2.38
    Area vector of patch inlet3[7] = (0 0 -9.0830079e-06)
    Area magnitude of patch inlet3[7] = 9.0830079e-06
    Reading surfaceScalarField phi
    Integral of phi over patch inlet3[7] = -1.5661383e-05

Time = 2.39
    Area vector of patch inlet3[7] = (0 0 -9.0830079e-06)
    Area magnitude of patch inlet3[7] = 9.0830079e-06
    Reading surfaceScalarField phi
    Integral of phi over patch inlet3[7] = -1.5501396e-05

Time = 2.4
    Area vector of patch inlet3[7] = (0 0 -9.0830079e-06)
    Area magnitude of patch inlet3[7] = 9.0830079e-06
    Reading surfaceScalarField phi
    Integral of phi over patch inlet3[7] = -1.5654823e-05

Time = 2.41
    Area vector of patch inlet3[7] = (0 0 -9.0830079e-06)
    Area magnitude of patch inlet3[7] = 9.0830079e-06
    Reading surfaceScalarField phi
    Integral of phi over patch inlet3[7] = -1.5585622e-05

Time = 2.42
    Area vector of patch inlet3[7] = (0 0 -9.0830079e-06)
    Area magnitude of patch inlet3[7] = 9.0830079e-06
    Reading surfaceScalarField phi
    Integral of phi over patch inlet3[7] = -1.5711094e-05

Time = 2.43
    Area vector of patch inlet3[7] = (0 0 -9.0830079e-06)
    Area magnitude of patch inlet3[7] = 9.0830079e-06
    Reading surfaceScalarField phi
    Integral of phi over patch inlet3[7] = -1.5575775e-05

Time = 2.44
    Area vector of patch inlet3[7] = (0 0 -9.0830079e-06)
    Area magnitude of patch inlet3[7] = 9.0830079e-06
    Reading surfaceScalarField phi
    Integral of phi over patch inlet3[7] = -1.5704869e-05

Time = 2.45
    Area vector of patch inlet3[7] = (0 0 -9.0830079e-06)
    Area magnitude of patch inlet3[7] = 9.0830079e-06
    Reading surfaceScalarField phi
    Integral of phi over patch inlet3[7] = -1.5657752e-05

Time = 2.46
    Area vector of patch inlet3[7] = (0 0 -9.0830079e-06)
    Area magnitude of patch inlet3[7] = 9.0830079e-06
    Reading surfaceScalarField phi
    Integral of phi over patch inlet3[7] = -1.5653923e-05

Time = 2.47
    Area vector of patch inlet3[7] = (0 0 -9.0830079e-06)
    Area magnitude of patch inlet3[7] = 9.0830079e-06
    Reading surfaceScalarField phi
    Integral of phi over patch inlet3[7] = -1.5591059e-05

Time = 2.48
    Area vector of patch inlet3[7] = (0 0 -9.0830079e-06)
    Area magnitude of patch inlet3[7] = 9.0830079e-06
    Reading surfaceScalarField phi
    Integral of phi over patch inlet3[7] = -1.5602313e-05

Time = 2.49
    Area vector of patch inlet3[7] = (0 0 -9.0830079e-06)
    Area magnitude of patch inlet3[7] = 9.0830079e-06
    Reading surfaceScalarField phi
    Integral of phi over patch inlet3[7] = -1.5689458e-05

Time = 2.5
    Area vector of patch inlet3[7] = (0 0 -9.0830079e-06)
    Area magnitude of patch inlet3[7] = 9.0830079e-06
    Reading surfaceScalarField phi
    Integral of phi over patch inlet3[7] = -1.5631407e-05

Time = 2.51
    Area vector of patch inlet3[7] = (0 0 -9.0830079e-06)
    Area magnitude of patch inlet3[7] = 9.0830079e-06
    Reading surfaceScalarField phi
    Integral of phi over patch inlet3[7] = -1.576389e-05

Time = 2.52
    Area vector of patch inlet3[7] = (0 0 -9.0830079e-06)
    Area magnitude of patch inlet3[7] = 9.0830079e-06
    Reading surfaceScalarField phi
    Integral of phi over patch inlet3[7] = -1.5691046e-05

Time = 2.53
    Area vector of patch inlet3[7] = (0 0 -9.0830079e-06)
    Area magnitude of patch inlet3[7] = 9.0830079e-06
    Reading surfaceScalarField phi
    Integral of phi over patch inlet3[7] = -1.5673544e-05

Time = 2.54
    Area vector of patch inlet3[7] = (0 0 -9.0830079e-06)
    Area magnitude of patch inlet3[7] = 9.0830079e-06
    Reading surfaceScalarField phi
    Integral of phi over patch inlet3[7] = -1.5667087e-05

Time = 2.55
    Area vector of patch inlet3[7] = (0 0 -9.0830079e-06)
    Area magnitude of patch inlet3[7] = 9.0830079e-06
    Reading surfaceScalarField phi
    Integral of phi over patch inlet3[7] = -1.5760408e-05

Time = 2.56
    Area vector of patch inlet3[7] = (0 0 -9.0830079e-06)
    Area magnitude of patch inlet3[7] = 9.0830079e-06
    Reading surfaceScalarField phi
    Integral of phi over patch inlet3[7] = -1.5844855e-05

Time = 2.57
    Area vector of patch inlet3[7] = (0 0 -9.0830079e-06)
    Area magnitude of patch inlet3[7] = 9.0830079e-06
    Reading surfaceScalarField phi
    Integral of phi over patch inlet3[7] = -1.5748916e-05

Time = 2.58
    Area vector of patch inlet3[7] = (0 0 -9.0830079e-06)
    Area magnitude of patch inlet3[7] = 9.0830079e-06
    Reading surfaceScalarField phi
    Integral of phi over patch inlet3[7] = -1.5774094e-05

Time = 2.59
    Area vector of patch inlet3[7] = (0 0 -9.0830079e-06)
    Area magnitude of patch inlet3[7] = 9.0830079e-06
    Reading surfaceScalarField phi
    Integral of phi over patch inlet3[7] = -1.5731462e-05

Time = 2.6
    Area vector of patch inlet3[7] = (0 0 -9.0830079e-06)
    Area magnitude of patch inlet3[7] = 9.0830079e-06
    Reading surfaceScalarField phi
    Integral of phi over patch inlet3[7] = -1.5883582e-05

Time = 2.61
    Area vector of patch inlet3[7] = (0 0 -9.0830079e-06)
    Area magnitude of patch inlet3[7] = 9.0830079e-06
    Reading surfaceScalarField phi
    Integral of phi over patch inlet3[7] = -1.5842667e-05

Time = 2.62
    Area vector of patch inlet3[7] = (0 0 -9.0830079e-06)
    Area magnitude of patch inlet3[7] = 9.0830079e-06
    Reading surfaceScalarField phi
    Integral of phi over patch inlet3[7] = -1.5791368e-05

Time = 2.63
    Area vector of patch inlet3[7] = (0 0 -9.0830079e-06)
    Area magnitude of patch inlet3[7] = 9.0830079e-06
    Reading surfaceScalarField phi
    Integral of phi over patch inlet3[7] = -1.5834765e-05

Time = 2.64
    Area vector of patch inlet3[7] = (0 0 -9.0830079e-06)
    Area magnitude of patch inlet3[7] = 9.0830079e-06
    Reading surfaceScalarField phi
    Integral of phi over patch inlet3[7] = -1.5815295e-05

Time = 2.65
    Area vector of patch inlet3[7] = (0 0 -9.0830079e-06)
    Area magnitude of patch inlet3[7] = 9.0830079e-06
    Reading surfaceScalarField phi
    Integral of phi over patch inlet3[7] = -1.5810549e-05

Time = 2.66
    Area vector of patch inlet3[7] = (0 0 -9.0830079e-06)
    Area magnitude of patch inlet3[7] = 9.0830079e-06
    Reading surfaceScalarField phi
    Integral of phi over patch inlet3[7] = -1.5919398e-05

Time = 2.67
    Area vector of patch inlet3[7] = (0 0 -9.0830079e-06)
    Area magnitude of patch inlet3[7] = 9.0830079e-06
    Reading surfaceScalarField phi
    Integral of phi over patch inlet3[7] = -1.5813353e-05

Time = 2.68
    Area vector of patch inlet3[7] = (0 0 -9.0830079e-06)
    Area magnitude of patch inlet3[7] = 9.0830079e-06
    Reading surfaceScalarField phi
    Integral of phi over patch inlet3[7] = -1.5848671e-05

Time = 2.69
    Area vector of patch inlet3[7] = (0 0 -9.0830079e-06)
    Area magnitude of patch inlet3[7] = 9.0830079e-06
    Reading surfaceScalarField phi
    Integral of phi over patch inlet3[7] = -1.5877228e-05

Time = 2.7
    Area vector of patch inlet3[7] = (0 0 -9.0830079e-06)
    Area magnitude of patch inlet3[7] = 9.0830079e-06
    Reading surfaceScalarField phi
    Integral of phi over patch inlet3[7] = -1.5841169e-05

Time = 2.71
    Area vector of patch inlet3[7] = (0 0 -9.0830079e-06)
    Area magnitude of patch inlet3[7] = 9.0830079e-06
    Reading surfaceScalarField phi
    Integral of phi over patch inlet3[7] = -1.5845106e-05

Time = 2.72
    Area vector of patch inlet3[7] = (0 0 -9.0830079e-06)
    Area magnitude of patch inlet3[7] = 9.0830079e-06
    Reading surfaceScalarField phi
    Integral of phi over patch inlet3[7] = -1.5833765e-05

Time = 2.73
    Area vector of patch inlet3[7] = (0 0 -9.0830079e-06)
    Area magnitude of patch inlet3[7] = 9.0830079e-06
    Reading surfaceScalarField phi
    Integral of phi over patch inlet3[7] = -1.5806131e-05

Time = 2.74
    Area vector of patch inlet3[7] = (0 0 -9.0830079e-06)
    Area magnitude of patch inlet3[7] = 9.0830079e-06
    Reading surfaceScalarField phi
    Integral of phi over patch inlet3[7] = -1.5837735e-05

Time = 2.75
    Area vector of patch inlet3[7] = (0 0 -9.0830079e-06)
    Area magnitude of patch inlet3[7] = 9.0830079e-06
    Reading surfaceScalarField phi
    Integral of phi over patch inlet3[7] = -1.5897466e-05

Time = 2.76
    Area vector of patch inlet3[7] = (0 0 -9.0830079e-06)
    Area magnitude of patch inlet3[7] = 9.0830079e-06
    Reading surfaceScalarField phi
    Integral of phi over patch inlet3[7] = -1.5802278e-05

Time = 2.77
    Area vector of patch inlet3[7] = (0 0 -9.0830079e-06)
    Area magnitude of patch inlet3[7] = 9.0830079e-06
    Reading surfaceScalarField phi
    Integral of phi over patch inlet3[7] = -1.5824457e-05

Time = 2.78
    Area vector of patch inlet3[7] = (0 0 -9.0830079e-06)
    Area magnitude of patch inlet3[7] = 9.0830079e-06
    Reading surfaceScalarField phi
    Integral of phi over patch inlet3[7] = -1.5768589e-05

Time = 2.79
    Area vector of patch inlet3[7] = (0 0 -9.0830079e-06)
    Area magnitude of patch inlet3[7] = 9.0830079e-06
    Reading surfaceScalarField phi
    Integral of phi over patch inlet3[7] = -1.5929874e-05

Time = 2.8
    Area vector of patch inlet3[7] = (0 0 -9.0830079e-06)
    Area magnitude of patch inlet3[7] = 9.0830079e-06
    Reading surfaceScalarField phi
    Integral of phi over patch inlet3[7] = -1.5811976e-05

Time = 2.81
    Area vector of patch inlet3[7] = (0 0 -9.0830079e-06)
    Area magnitude of patch inlet3[7] = 9.0830079e-06
    Reading surfaceScalarField phi
    Integral of phi over patch inlet3[7] = -1.5886222e-05

Time = 2.82
    Area vector of patch inlet3[7] = (0 0 -9.0830079e-06)
    Area magnitude of patch inlet3[7] = 9.0830079e-06
    Reading surfaceScalarField phi
    Integral of phi over patch inlet3[7] = -1.5765162e-05

Time = 2.83
    Area vector of patch inlet3[7] = (0 0 -9.0830079e-06)
    Area magnitude of patch inlet3[7] = 9.0830079e-06
    Reading surfaceScalarField phi
    Integral of phi over patch inlet3[7] = -1.5927933e-05

Time = 2.84
    Area vector of patch inlet3[7] = (0 0 -9.0830079e-06)
    Area magnitude of patch inlet3[7] = 9.0830079e-06
    Reading surfaceScalarField phi
    Integral of phi over patch inlet3[7] = -1.5871133e-05

Time = 2.85
    Area vector of patch inlet3[7] = (0 0 -9.0830079e-06)
    Area magnitude of patch inlet3[7] = 9.0830079e-06
    Reading surfaceScalarField phi
    Integral of phi over patch inlet3[7] = -1.5970738e-05

Time = 2.86
    Area vector of patch inlet3[7] = (0 0 -9.0830079e-06)
    Area magnitude of patch inlet3[7] = 9.0830079e-06
    Reading surfaceScalarField phi
    Integral of phi over patch inlet3[7] = -1.5965806e-05

Time = 2.87
    Area vector of patch inlet3[7] = (0 0 -9.0830079e-06)
    Area magnitude of patch inlet3[7] = 9.0830079e-06
    Reading surfaceScalarField phi
    Integral of phi over patch inlet3[7] = -1.5803409e-05

Time = 2.88
    Area vector of patch inlet3[7] = (0 0 -9.0830079e-06)
    Area magnitude of patch inlet3[7] = 9.0830079e-06
    Reading surfaceScalarField phi
    Integral of phi over patch inlet3[7] = -1.5936612e-05

Time = 2.89
    Area vector of patch inlet3[7] = (0 0 -9.0830079e-06)
    Area magnitude of patch inlet3[7] = 9.0830079e-06
    Reading surfaceScalarField phi
    Integral of phi over patch inlet3[7] = -1.5862392e-05

Time = 2.9
    Area vector of patch inlet3[7] = (0 0 -9.0830079e-06)
    Area magnitude of patch inlet3[7] = 9.0830079e-06
    Reading surfaceScalarField phi
    Integral of phi over patch inlet3[7] = -1.5861348e-05

Time = 2.91
    Area vector of patch inlet3[7] = (0 0 -9.0830079e-06)
    Area magnitude of patch inlet3[7] = 9.0830079e-06
    Reading surfaceScalarField phi
    Integral of phi over patch inlet3[7] = -1.5949203e-05

Time = 2.92
    Area vector of patch inlet3[7] = (0 0 -9.0830079e-06)
    Area magnitude of patch inlet3[7] = 9.0830079e-06
    Reading surfaceScalarField phi
    Integral of phi over patch inlet3[7] = -1.587381e-05

Time = 2.93
    Area vector of patch inlet3[7] = (0 0 -9.0830079e-06)
    Area magnitude of patch inlet3[7] = 9.0830079e-06
    Reading surfaceScalarField phi
    Integral of phi over patch inlet3[7] = -1.5860144e-05

Time = 2.94
    Area vector of patch inlet3[7] = (0 0 -9.0830079e-06)
    Area magnitude of patch inlet3[7] = 9.0830079e-06
    Reading surfaceScalarField phi
    Integral of phi over patch inlet3[7] = -1.5916397e-05

Time = 2.95
    Area vector of patch inlet3[7] = (0 0 -9.0830079e-06)
    Area magnitude of patch inlet3[7] = 9.0830079e-06
    Reading surfaceScalarField phi
    Integral of phi over patch inlet3[7] = -1.6013618e-05

Time = 2.96
    Area vector of patch inlet3[7] = (0 0 -9.0830079e-06)
    Area magnitude of patch inlet3[7] = 9.0830079e-06
    Reading surfaceScalarField phi
    Integral of phi over patch inlet3[7] = -1.5889621e-05

Time = 2.97
    Area vector of patch inlet3[7] = (0 0 -9.0830079e-06)
    Area magnitude of patch inlet3[7] = 9.0830079e-06
    Reading surfaceScalarField phi
    Integral of phi over patch inlet3[7] = -1.5991265e-05

Time = 2.98
    Area vector of patch inlet3[7] = (0 0 -9.0830079e-06)
    Area magnitude of patch inlet3[7] = 9.0830079e-06
    Reading surfaceScalarField phi
    Integral of phi over patch inlet3[7] = -1.5947268e-05

Time = 2.99
    Area vector of patch inlet3[7] = (0 0 -9.0830079e-06)
    Area magnitude of patch inlet3[7] = 9.0830079e-06
    Reading surfaceScalarField phi
    Integral of phi over patch inlet3[7] = -1.5901339e-05

Time = 3
    Area vector of patch inlet3[7] = (0 0 -9.0830079e-06)
    Area magnitude of patch inlet3[7] = 9.0830079e-06
    Reading surfaceScalarField phi
    Integral of phi over patch inlet3[7] = -1.5951245e-05

Time = 3.01
    Area vector of patch inlet3[7] = (0 0 -9.0830079e-06)
    Area magnitude of patch inlet3[7] = 9.0830079e-06
    Reading surfaceScalarField phi
    Integral of phi over patch inlet3[7] = -1.5849943e-05

Time = 3.02
    Area vector of patch inlet3[7] = (0 0 -9.0830079e-06)
    Area magnitude of patch inlet3[7] = 9.0830079e-06
    Reading surfaceScalarField phi
    Integral of phi over patch inlet3[7] = -1.581692e-05

Time = 3.03
    Area vector of patch inlet3[7] = (0 0 -9.0830079e-06)
    Area magnitude of patch inlet3[7] = 9.0830079e-06
    Reading surfaceScalarField phi
    Integral of phi over patch inlet3[7] = -1.5765799e-05

Time = 3.04
    Area vector of patch inlet3[7] = (0 0 -9.0830079e-06)
    Area magnitude of patch inlet3[7] = 9.0830079e-06
    Reading surfaceScalarField phi
    Integral of phi over patch inlet3[7] = -1.5919574e-05

Time = 3.05
    Area vector of patch inlet3[7] = (0 0 -9.0830079e-06)
    Area magnitude of patch inlet3[7] = 9.0830079e-06
    Reading surfaceScalarField phi
    Integral of phi over patch inlet3[7] = -1.5762504e-05

Time = 3.06
    Area vector of patch inlet3[7] = (0 0 -9.0830079e-06)
    Area magnitude of patch inlet3[7] = 9.0830079e-06
    Reading surfaceScalarField phi
    Integral of phi over patch inlet3[7] = -1.5871659e-05

Time = 3.07
    Area vector of patch inlet3[7] = (0 0 -9.0830079e-06)
    Area magnitude of patch inlet3[7] = 9.0830079e-06
    Reading surfaceScalarField phi
    Integral of phi over patch inlet3[7] = -1.5900701e-05

Time = 3.08
    Area vector of patch inlet3[7] = (0 0 -9.0830079e-06)
    Area magnitude of patch inlet3[7] = 9.0830079e-06
    Reading surfaceScalarField phi
    Integral of phi over patch inlet3[7] = -1.5939898e-05

Time = 3.09
    Area vector of patch inlet3[7] = (0 0 -9.0830079e-06)
    Area magnitude of patch inlet3[7] = 9.0830079e-06
    Reading surfaceScalarField phi
    Integral of phi over patch inlet3[7] = -1.5886618e-05

Time = 3.1
    Area vector of patch inlet3[7] = (0 0 -9.0830079e-06)
    Area magnitude of patch inlet3[7] = 9.0830079e-06
    Reading surfaceScalarField phi
    Integral of phi over patch inlet3[7] = -1.5965845e-05

Time = 3.11
    Area vector of patch inlet3[7] = (0 0 -9.0830079e-06)
    Area magnitude of patch inlet3[7] = 9.0830079e-06
    Reading surfaceScalarField phi
    Integral of phi over patch inlet3[7] = -1.5866405e-05

Time = 3.12
    Area vector of patch inlet3[7] = (0 0 -9.0830079e-06)
    Area magnitude of patch inlet3[7] = 9.0830079e-06
    Reading surfaceScalarField phi
    Integral of phi over patch inlet3[7] = -1.5967247e-05

Time = 3.13
    Area vector of patch inlet3[7] = (0 0 -9.0830079e-06)
    Area magnitude of patch inlet3[7] = 9.0830079e-06
    Reading surfaceScalarField phi
    Integral of phi over patch inlet3[7] = -1.5933184e-05

Time = 3.14
    Area vector of patch inlet3[7] = (0 0 -9.0830079e-06)
    Area magnitude of patch inlet3[7] = 9.0830079e-06
    Reading surfaceScalarField phi
    Integral of phi over patch inlet3[7] = -1.5940737e-05

Time = 3.15
    Area vector of patch inlet3[7] = (0 0 -9.0830079e-06)
    Area magnitude of patch inlet3[7] = 9.0830079e-06
    Reading surfaceScalarField phi
    Integral of phi over patch inlet3[7] = -1.5742142e-05

Time = 3.16
    Area vector of patch inlet3[7] = (0 0 -9.0830079e-06)
    Area magnitude of patch inlet3[7] = 9.0830079e-06
    Reading surfaceScalarField phi
    Integral of phi over patch inlet3[7] = -1.5905841e-05

Time = 3.17
    Area vector of patch inlet3[7] = (0 0 -9.0830079e-06)
    Area magnitude of patch inlet3[7] = 9.0830079e-06
    Reading surfaceScalarField phi
    Integral of phi over patch inlet3[7] = -1.5833806e-05

Time = 3.18
    Area vector of patch inlet3[7] = (0 0 -9.0830079e-06)
    Area magnitude of patch inlet3[7] = 9.0830079e-06
    Reading surfaceScalarField phi
    Integral of phi over patch inlet3[7] = -1.5872791e-05

Time = 3.19
    Area vector of patch inlet3[7] = (0 0 -9.0830079e-06)
    Area magnitude of patch inlet3[7] = 9.0830079e-06
    Reading surfaceScalarField phi
    Integral of phi over patch inlet3[7] = -1.5844813e-05

Time = 3.2
    Area vector of patch inlet3[7] = (0 0 -9.0830079e-06)
    Area magnitude of patch inlet3[7] = 9.0830079e-06
    Reading surfaceScalarField phi
    Integral of phi over patch inlet3[7] = -1.5919078e-05

Time = 3.21
    Area vector of patch inlet3[7] = (0 0 -9.0830079e-06)
    Area magnitude of patch inlet3[7] = 9.0830079e-06
    Reading surfaceScalarField phi
    Integral of phi over patch inlet3[7] = -1.6015819e-05

Time = 3.22
    Area vector of patch inlet3[7] = (0 0 -9.0830079e-06)
    Area magnitude of patch inlet3[7] = 9.0830079e-06
    Reading surfaceScalarField phi
    Integral of phi over patch inlet3[7] = -1.5860153e-05

Time = 3.23
    Area vector of patch inlet3[7] = (0 0 -9.0830079e-06)
    Area magnitude of patch inlet3[7] = 9.0830079e-06
    Reading surfaceScalarField phi
    Integral of phi over patch inlet3[7] = -1.5923278e-05

Time = 3.24
    Area vector of patch inlet3[7] = (0 0 -9.0830079e-06)
    Area magnitude of patch inlet3[7] = 9.0830079e-06
    Reading surfaceScalarField phi
    Integral of phi over patch inlet3[7] = -1.5886537e-05

Time = 3.25
    Area vector of patch inlet3[7] = (0 0 -9.0830079e-06)
    Area magnitude of patch inlet3[7] = 9.0830079e-06
    Reading surfaceScalarField phi
    Integral of phi over patch inlet3[7] = -1.5844882e-05

Time = 3.26
    Area vector of patch inlet3[7] = (0 0 -9.0830079e-06)
    Area magnitude of patch inlet3[7] = 9.0830079e-06
    Reading surfaceScalarField phi
    Integral of phi over patch inlet3[7] = -1.5984889e-05

Time = 3.27
    Area vector of patch inlet3[7] = (0 0 -9.0830079e-06)
    Area magnitude of patch inlet3[7] = 9.0830079e-06
    Reading surfaceScalarField phi
    Integral of phi over patch inlet3[7] = -1.5882072e-05

Time = 3.28
    Area vector of patch inlet3[7] = (0 0 -9.0830079e-06)
    Area magnitude of patch inlet3[7] = 9.0830079e-06
    Reading surfaceScalarField phi
    Integral of phi over patch inlet3[7] = -1.5869985e-05

Time = 3.29
    Area vector of patch inlet3[7] = (0 0 -9.0830079e-06)
    Area magnitude of patch inlet3[7] = 9.0830079e-06
    Reading surfaceScalarField phi
    Integral of phi over patch inlet3[7] = -1.599311e-05

Time = 3.3
    Area vector of patch inlet3[7] = (0 0 -9.0830079e-06)
    Area magnitude of patch inlet3[7] = 9.0830079e-06
    Reading surfaceScalarField phi
    Integral of phi over patch inlet3[7] = -1.5801552e-05

Time = 3.31
    Area vector of patch inlet3[7] = (0 0 -9.0830079e-06)
    Area magnitude of patch inlet3[7] = 9.0830079e-06
    Reading surfaceScalarField phi
    Integral of phi over patch inlet3[7] = -1.5973801e-05

Time = 3.32
    Area vector of patch inlet3[7] = (0 0 -9.0830079e-06)
    Area magnitude of patch inlet3[7] = 9.0830079e-06
    Reading surfaceScalarField phi
    Integral of phi over patch inlet3[7] = -1.5867365e-05

Time = 3.33
    Area vector of patch inlet3[7] = (0 0 -9.0830079e-06)
    Area magnitude of patch inlet3[7] = 9.0830079e-06
    Reading surfaceScalarField phi
    Integral of phi over patch inlet3[7] = -1.5874795e-05

Time = 3.34
    Area vector of patch inlet3[7] = (0 0 -9.0830079e-06)
    Area magnitude of patch inlet3[7] = 9.0830079e-06
    Reading surfaceScalarField phi
    Integral of phi over patch inlet3[7] = -1.5965551e-05

Time = 3.35
    Area vector of patch inlet3[7] = (0 0 -9.0830079e-06)
    Area magnitude of patch inlet3[7] = 9.0830079e-06
    Reading surfaceScalarField phi
    Integral of phi over patch inlet3[7] = -1.5948114e-05

Time = 3.36
    Area vector of patch inlet3[7] = (0 0 -9.0830079e-06)
    Area magnitude of patch inlet3[7] = 9.0830079e-06
    Reading surfaceScalarField phi
    Integral of phi over patch inlet3[7] = -1.5943088e-05

Time = 3.37
    Area vector of patch inlet3[7] = (0 0 -9.0830079e-06)
    Area magnitude of patch inlet3[7] = 9.0830079e-06
    Reading surfaceScalarField phi
    Integral of phi over patch inlet3[7] = -1.6025534e-05

Time = 3.38
    Area vector of patch inlet3[7] = (0 0 -9.0830079e-06)
    Area magnitude of patch inlet3[7] = 9.0830079e-06
    Reading surfaceScalarField phi
    Integral of phi over patch inlet3[7] = -1.6112409e-05

Time = 3.39
    Area vector of patch inlet3[7] = (0 0 -9.0830079e-06)
    Area magnitude of patch inlet3[7] = 9.0830079e-06
    Reading surfaceScalarField phi
    Integral of phi over patch inlet3[7] = -1.6001612e-05

Time = 3.4
    Area vector of patch inlet3[7] = (0 0 -9.0830079e-06)
    Area magnitude of patch inlet3[7] = 9.0830079e-06
    Reading surfaceScalarField phi
    Integral of phi over patch inlet3[7] = -1.6009995e-05

Time = 3.41
    Area vector of patch inlet3[7] = (0 0 -9.0830079e-06)
    Area magnitude of patch inlet3[7] = 9.0830079e-06
    Reading surfaceScalarField phi
    Integral of phi over patch inlet3[7] = -1.6073189e-05

Time = 3.42
    Area vector of patch inlet3[7] = (0 0 -9.0830079e-06)
    Area magnitude of patch inlet3[7] = 9.0830079e-06
    Reading surfaceScalarField phi
    Integral of phi over patch inlet3[7] = -1.6032161e-05

Time = 3.43
    Area vector of patch inlet3[7] = (0 0 -9.0830079e-06)
    Area magnitude of patch inlet3[7] = 9.0830079e-06
    Reading surfaceScalarField phi
    Integral of phi over patch inlet3[7] = -1.6066681e-05

Time = 3.44
    Area vector of patch inlet3[7] = (0 0 -9.0830079e-06)
    Area magnitude of patch inlet3[7] = 9.0830079e-06
    Reading surfaceScalarField phi
    Integral of phi over patch inlet3[7] = -1.6147271e-05

Time = 3.45
    Area vector of patch inlet3[7] = (0 0 -9.0830079e-06)
    Area magnitude of patch inlet3[7] = 9.0830079e-06
    Reading surfaceScalarField phi
    Integral of phi over patch inlet3[7] = -1.600607e-05

Time = 3.46
    Area vector of patch inlet3[7] = (0 0 -9.0830079e-06)
    Area magnitude of patch inlet3[7] = 9.0830079e-06
    Reading surfaceScalarField phi
    Integral of phi over patch inlet3[7] = -1.6060453e-05

Time = 3.47
    Area vector of patch inlet3[7] = (0 0 -9.0830079e-06)
    Area magnitude of patch inlet3[7] = 9.0830079e-06
    Reading surfaceScalarField phi
    Integral of phi over patch inlet3[7] = -1.5972584e-05

Time = 3.48
    Area vector of patch inlet3[7] = (0 0 -9.0830079e-06)
    Area magnitude of patch inlet3[7] = 9.0830079e-06
    Reading surfaceScalarField phi
    Integral of phi over patch inlet3[7] = -1.6095111e-05

Time = 3.49
    Area vector of patch inlet3[7] = (0 0 -9.0830079e-06)
    Area magnitude of patch inlet3[7] = 9.0830079e-06
    Reading surfaceScalarField phi
    Integral of phi over patch inlet3[7] = -1.5998912e-05

Time = 3.5
    Area vector of patch inlet3[7] = (0 0 -9.0830079e-06)
    Area magnitude of patch inlet3[7] = 9.0830079e-06
    Reading surfaceScalarField phi
    Integral of phi over patch inlet3[7] = -1.6092359e-05

Time = 3.51
    Area vector of patch inlet3[7] = (0 0 -9.0830079e-06)
    Area magnitude of patch inlet3[7] = 9.0830079e-06
    Reading surfaceScalarField phi
    Integral of phi over patch inlet3[7] = -1.5663803e-05

Time = 3.52
    Area vector of patch inlet3[7] = (0 0 -9.0830079e-06)
    Area magnitude of patch inlet3[7] = 9.0830079e-06
    Reading surfaceScalarField phi
    Integral of phi over patch inlet3[7] = -1.5183034e-05

End

Finalising parallel run
/*---------------------------------------------------------------------------*\
| =========                 |                                                 |
| \\      /  F ield         | OpenFOAM: The Open Source CFD Toolbox           |
|  \\    /   O peration     | Version:  2.3.x                                 |
|   \\  /    A nd           | Web:      www.OpenFOAM.org                      |
|    \\/     M anipulation  |                                                 |
\*---------------------------------------------------------------------------*/
Build  : 2.3.x
Exec   : patchIntegrate -time 3.52:4 phi inlet3 -parallel
Date   : Jul 06 2018
Time   : 11:08:25
Host   : "visu"
PID    : 136669
Case   : /home/lmfa/hluo/LocalSoftware/OpenFOAM/hluo-2.3.x/run/pipe/periodic/pipe4/prototype_artificiallyReducedViscosity
nProcs : 32
Slaves : 
31
(
"visu.136670"
"visu.136671"
"visu.136672"
"visu.136673"
"visu.136674"
"visu.136675"
"visu.136676"
"visu.136677"
"visu.136678"
"visu.136679"
"visu.136680"
"visu.136681"
"visu.136682"
"visu.136683"
"visu.136687"
"visu.136688"
"visu.136690"
"visu.136694"
"visu.136695"
"visu.136696"
"visu.136697"
"visu.136698"
"visu.136699"
"visu.136700"
"visu.136701"
"visu.136702"
"visu.136703"
"visu.136704"
"visu.136705"
"visu.136706"
"visu.136707"
)

Pstream initialized with:
    floatTransfer      : 0
    nProcsSimpleSum    : 0
    commsType          : nonBlocking
    polling iterations : 0
sigFpe : Enabling floating point exception trapping (FOAM_SIGFPE).
fileModificationChecking : Monitoring run-time modified files using timeStampMaster
allowSystemOperations : Allowing user-supplied system call operations

// * * * * * * * * * * * * * * * * * * * * * * * * * * * * * * * * * * * * * //
Create time

--> FOAM Warning : 
    From function dlOpen(const fileName&, const bool)
    in file POSIX.C at line 1179
    dlopen error : /home/lmfa/hluo/LocalSoftware/OpenFOAM/hluo-2.3.x/platforms/linux64GccDPOpt/lib/libfvOptionUserConstantExplicitPGradForce.so: undefined symbol: _ZTIN4Foam2fv6optionE
--> FOAM Warning : 
    From function dlLibraryTable::open(const fileName&, const bool)
    in file db/dynamicLibrary/dlLibraryTable/dlLibraryTable.C at line 99
    could not load "libfvOptionUserConstantExplicitPGradForce.so"
Create mesh for time = 3.52

Time = 3.52
    Area vector of patch inlet3[7] = (0 0 -9.0830079e-06)
    Area magnitude of patch inlet3[7] = 9.0830079e-06
    Reading surfaceScalarField phi
    Integral of phi over patch inlet3[7] = -1.5183034e-05

Time = 3.53
    Area vector of patch inlet3[7] = (0 0 -9.0830079e-06)
    Area magnitude of patch inlet3[7] = 9.0830079e-06
    Reading surfaceScalarField phi
    Integral of phi over patch inlet3[7] = -1.4941177e-05

Time = 3.54
    Area vector of patch inlet3[7] = (0 0 -9.0830079e-06)
    Area magnitude of patch inlet3[7] = 9.0830079e-06
    Reading surfaceScalarField phi
    Integral of phi over patch inlet3[7] = -1.4607062e-05

Time = 3.55
    Area vector of patch inlet3[7] = (0 0 -9.0830079e-06)
    Area magnitude of patch inlet3[7] = 9.0830079e-06
    Reading surfaceScalarField phi
    Integral of phi over patch inlet3[7] = -1.4501318e-05

Time = 3.56
    Area vector of patch inlet3[7] = (0 0 -9.0830079e-06)
    Area magnitude of patch inlet3[7] = 9.0830079e-06
    Reading surfaceScalarField phi
    Integral of phi over patch inlet3[7] = -1.4461134e-05

Time = 3.57
    Area vector of patch inlet3[7] = (0 0 -9.0830079e-06)
    Area magnitude of patch inlet3[7] = 9.0830079e-06
    Reading surfaceScalarField phi
    Integral of phi over patch inlet3[7] = -1.4181078e-05

Time = 3.58
    Area vector of patch inlet3[7] = (0 0 -9.0830079e-06)
    Area magnitude of patch inlet3[7] = 9.0830079e-06
    Reading surfaceScalarField phi
    Integral of phi over patch inlet3[7] = -1.4306581e-05

Time = 3.59
    Area vector of patch inlet3[7] = (0 0 -9.0830079e-06)
    Area magnitude of patch inlet3[7] = 9.0830079e-06
    Reading surfaceScalarField phi
    Integral of phi over patch inlet3[7] = -1.3953908e-05

Time = 3.6
    Area vector of patch inlet3[7] = (0 0 -9.0830079e-06)
    Area magnitude of patch inlet3[7] = 9.0830079e-06
    Reading surfaceScalarField phi
    Integral of phi over patch inlet3[7] = -1.4183646e-05

Time = 3.61
    Area vector of patch inlet3[7] = (0 0 -9.0830079e-06)
    Area magnitude of patch inlet3[7] = 9.0830079e-06
    Reading surfaceScalarField phi
    Integral of phi over patch inlet3[7] = -1.3883047e-05

Time = 3.62
    Area vector of patch inlet3[7] = (0 0 -9.0830079e-06)
    Area magnitude of patch inlet3[7] = 9.0830079e-06
    Reading surfaceScalarField phi
    Integral of phi over patch inlet3[7] = -1.4024323e-05

Time = 3.63
    Area vector of patch inlet3[7] = (0 0 -9.0830079e-06)
    Area magnitude of patch inlet3[7] = 9.0830079e-06
    Reading surfaceScalarField phi
    Integral of phi over patch inlet3[7] = -1.3473581e-05

Time = 3.64
    Area vector of patch inlet3[7] = (0 0 -9.0830079e-06)
    Area magnitude of patch inlet3[7] = 9.0830079e-06
    Reading surfaceScalarField phi
    Integral of phi over patch inlet3[7] = -1.3608492e-05

Time = 3.65
    Area vector of patch inlet3[7] = (0 0 -9.0830079e-06)
    Area magnitude of patch inlet3[7] = 9.0830079e-06
    Reading surfaceScalarField phi
    Integral of phi over patch inlet3[7] = -1.3021681e-05

Time = 3.66
    Area vector of patch inlet3[7] = (0 0 -9.0830079e-06)
    Area magnitude of patch inlet3[7] = 9.0830079e-06
    Reading surfaceScalarField phi
    Integral of phi over patch inlet3[7] = -1.3016318e-05

Time = 3.67
    Area vector of patch inlet3[7] = (0 0 -9.0830079e-06)
    Area magnitude of patch inlet3[7] = 9.0830079e-06
    Reading surfaceScalarField phi
    Integral of phi over patch inlet3[7] = -1.3147655e-05

Time = 3.68
    Area vector of patch inlet3[7] = (0 0 -9.0830079e-06)
    Area magnitude of patch inlet3[7] = 9.0830079e-06
    Reading surfaceScalarField phi
    Integral of phi over patch inlet3[7] = -1.2421947e-05

Time = 3.69
    Area vector of patch inlet3[7] = (0 0 -9.0830079e-06)
    Area magnitude of patch inlet3[7] = 9.0830079e-06
    Reading surfaceScalarField phi
    Integral of phi over patch inlet3[7] = -1.2359367e-05

Time = 3.7
    Area vector of patch inlet3[7] = (0 0 -9.0830079e-06)
    Area magnitude of patch inlet3[7] = 9.0830079e-06
    Reading surfaceScalarField phi
    Integral of phi over patch inlet3[7] = -1.2339838e-05

Time = 3.71
    Area vector of patch inlet3[7] = (0 0 -9.0830079e-06)
    Area magnitude of patch inlet3[7] = 9.0830079e-06
    Reading surfaceScalarField phi
    Integral of phi over patch inlet3[7] = -1.2195482e-05

Time = 3.72
    Area vector of patch inlet3[7] = (0 0 -9.0830079e-06)
    Area magnitude of patch inlet3[7] = 9.0830079e-06
    Reading surfaceScalarField phi
    Integral of phi over patch inlet3[7] = -1.2052274e-05

Time = 3.73
    Area vector of patch inlet3[7] = (0 0 -9.0830079e-06)
    Area magnitude of patch inlet3[7] = 9.0830079e-06
    Reading surfaceScalarField phi
    Integral of phi over patch inlet3[7] = -1.1978657e-05

Time = 3.74
    Area vector of patch inlet3[7] = (0 0 -9.0830079e-06)
    Area magnitude of patch inlet3[7] = 9.0830079e-06
    Reading surfaceScalarField phi
    Integral of phi over patch inlet3[7] = -1.1208787e-05

Time = 3.75
    Area vector of patch inlet3[7] = (0 0 -9.0830079e-06)
    Area magnitude of patch inlet3[7] = 9.0830079e-06
    Reading surfaceScalarField phi
    Integral of phi over patch inlet3[7] = -1.1268729e-05

Time = 3.76
    Area vector of patch inlet3[7] = (0 0 -9.0830079e-06)
    Area magnitude of patch inlet3[7] = 9.0830079e-06
    Reading surfaceScalarField phi
    Integral of phi over patch inlet3[7] = -1.1055359e-05

Time = 3.77
    Area vector of patch inlet3[7] = (0 0 -9.0830079e-06)
    Area magnitude of patch inlet3[7] = 9.0830079e-06
    Reading surfaceScalarField phi
    Integral of phi over patch inlet3[7] = -1.08445e-05

Time = 3.78
    Area vector of patch inlet3[7] = (0 0 -9.0830079e-06)
    Area magnitude of patch inlet3[7] = 9.0830079e-06
    Reading surfaceScalarField phi
    Integral of phi over patch inlet3[7] = -1.1130918e-05

Time = 3.79
    Area vector of patch inlet3[7] = (0 0 -9.0830079e-06)
    Area magnitude of patch inlet3[7] = 9.0830079e-06
    Reading surfaceScalarField phi
    Integral of phi over patch inlet3[7] = -1.064657e-05

Time = 3.8
    Area vector of patch inlet3[7] = (0 0 -9.0830079e-06)
    Area magnitude of patch inlet3[7] = 9.0830079e-06
    Reading surfaceScalarField phi
    Integral of phi over patch inlet3[7] = -1.027145e-05

Time = 3.81
    Area vector of patch inlet3[7] = (0 0 -9.0830079e-06)
    Area magnitude of patch inlet3[7] = 9.0830079e-06
    Reading surfaceScalarField phi
    Integral of phi over patch inlet3[7] = -1.0702915e-05

Time = 3.82
    Area vector of patch inlet3[7] = (0 0 -9.0830079e-06)
    Area magnitude of patch inlet3[7] = 9.0830079e-06
    Reading surfaceScalarField phi
    Integral of phi over patch inlet3[7] = -1.0245002e-05

Time = 3.83
    Area vector of patch inlet3[7] = (0 0 -9.0830079e-06)
    Area magnitude of patch inlet3[7] = 9.0830079e-06
    Reading surfaceScalarField phi
    Integral of phi over patch inlet3[7] = -1.0016462e-05

Time = 3.84
    Area vector of patch inlet3[7] = (0 0 -9.0830079e-06)
    Area magnitude of patch inlet3[7] = 9.0830079e-06
    Reading surfaceScalarField phi
    Integral of phi over patch inlet3[7] = -1.0073862e-05

Time = 3.85
    Area vector of patch inlet3[7] = (0 0 -9.0830079e-06)
    Area magnitude of patch inlet3[7] = 9.0830079e-06
    Reading surfaceScalarField phi
    Integral of phi over patch inlet3[7] = -9.8984091e-06

Time = 3.86
    Area vector of patch inlet3[7] = (0 0 -9.0830079e-06)
    Area magnitude of patch inlet3[7] = 9.0830079e-06
    Reading surfaceScalarField phi
    Integral of phi over patch inlet3[7] = -9.9258037e-06

Time = 3.87
    Area vector of patch inlet3[7] = (0 0 -9.0830079e-06)
    Area magnitude of patch inlet3[7] = 9.0830079e-06
    Reading surfaceScalarField phi
    Integral of phi over patch inlet3[7] = -9.6704461e-06

Time = 3.88
    Area vector of patch inlet3[7] = (0 0 -9.0830079e-06)
    Area magnitude of patch inlet3[7] = 9.0830079e-06
    Reading surfaceScalarField phi
    Integral of phi over patch inlet3[7] = -9.2508696e-06

Time = 3.89
    Area vector of patch inlet3[7] = (0 0 -9.0830079e-06)
    Area magnitude of patch inlet3[7] = 9.0830079e-06
    Reading surfaceScalarField phi
    Integral of phi over patch inlet3[7] = -9.5766525e-06

Time = 3.9
    Area vector of patch inlet3[7] = (0 0 -9.0830079e-06)
    Area magnitude of patch inlet3[7] = 9.0830079e-06
    Reading surfaceScalarField phi
    Integral of phi over patch inlet3[7] = -9.3624996e-06

Time = 3.91
    Area vector of patch inlet3[7] = (0 0 -9.0830079e-06)
    Area magnitude of patch inlet3[7] = 9.0830079e-06
    Reading surfaceScalarField phi
    Integral of phi over patch inlet3[7] = -9.5517137e-06

Time = 3.92
    Area vector of patch inlet3[7] = (0 0 -9.0830079e-06)
    Area magnitude of patch inlet3[7] = 9.0830079e-06
    Reading surfaceScalarField phi
    Integral of phi over patch inlet3[7] = -9.2117721e-06

Time = 3.93
    Area vector of patch inlet3[7] = (0 0 -9.0830079e-06)
    Area magnitude of patch inlet3[7] = 9.0830079e-06
    Reading surfaceScalarField phi
    Integral of phi over patch inlet3[7] = -9.0637952e-06

Time = 3.94
    Area vector of patch inlet3[7] = (0 0 -9.0830079e-06)
    Area magnitude of patch inlet3[7] = 9.0830079e-06
    Reading surfaceScalarField phi
    Integral of phi over patch inlet3[7] = -9.2522053e-06

Time = 3.95
    Area vector of patch inlet3[7] = (0 0 -9.0830079e-06)
    Area magnitude of patch inlet3[7] = 9.0830079e-06
    Reading surfaceScalarField phi
    Integral of phi over patch inlet3[7] = -8.9908233e-06

Time = 3.96
    Area vector of patch inlet3[7] = (0 0 -9.0830079e-06)
    Area magnitude of patch inlet3[7] = 9.0830079e-06
    Reading surfaceScalarField phi
    Integral of phi over patch inlet3[7] = -8.8489148e-06

Time = 3.97
    Area vector of patch inlet3[7] = (0 0 -9.0830079e-06)
    Area magnitude of patch inlet3[7] = 9.0830079e-06
    Reading surfaceScalarField phi
    Integral of phi over patch inlet3[7] = -8.5781406e-06

Time = 3.98
    Area vector of patch inlet3[7] = (0 0 -9.0830079e-06)
    Area magnitude of patch inlet3[7] = 9.0830079e-06
    Reading surfaceScalarField phi
    Integral of phi over patch inlet3[7] = -8.8509672e-06

Time = 3.99
    Area vector of patch inlet3[7] = (0 0 -9.0830079e-06)
    Area magnitude of patch inlet3[7] = 9.0830079e-06
    Reading surfaceScalarField phi
    Integral of phi over patch inlet3[7] = -8.7568331e-06

Time = 4
    Area vector of patch inlet3[7] = (0 0 -9.0830079e-06)
    Area magnitude of patch inlet3[7] = 9.0830079e-06
    Reading surfaceScalarField phi
    Integral of phi over patch inlet3[7] = -8.6338186e-06

End

Finalising parallel run
