/*---------------------------------------------------------------------------*\
| =========                 |                                                 |
| \\      /  F ield         | OpenFOAM: The Open Source CFD Toolbox           |
|  \\    /   O peration     | Version:  2.3.x                                 |
|   \\  /    A nd           | Web:      www.OpenFOAM.org                      |
|    \\/     M anipulation  |                                                 |
\*---------------------------------------------------------------------------*/
Build  : 2.3.x
Exec   : patchIntegrate phi inlet0 -time 0:7
Date   : Feb 26 2019
Time   : 21:21:30
Host   : "newton-t20-51"
PID    : 100736
Case   : /store/lmfa/fct/hluo/LocalSoftware/OpenFOAM/hluo-2.3.x/run/pipes/periodic/pipe4/Newtonian/prototype_artificiallyReducedViscosity
nProcs : 1
sigFpe : Enabling floating point exception trapping (FOAM_SIGFPE).
fileModificationChecking : Monitoring run-time modified files using timeStampMaster
allowSystemOperations : Allowing user-supplied system call operations

// * * * * * * * * * * * * * * * * * * * * * * * * * * * * * * * * * * * * * //
Create time

--> FOAM Warning : 
    From function dlOpen(const fileName&, const bool)
    in file POSIX.C at line 1179
    dlopen error : /home/lmfa/hluo/LocalSoftware/OpenFOAM/hluo-2.3.x/platforms/linux64GccDPOpt/lib/libfvOptionUserConstantExplicitPGradForce.so: undefined symbol: _ZTIN4Foam2fv6optionE
--> FOAM Warning : 
    From function dlLibraryTable::open(const fileName&, const bool)
    in file db/dynamicLibrary/dlLibraryTable/dlLibraryTable.C at line 99
    could not load "libfvOptionUserConstantExplicitPGradForce.so"
Create mesh for time = 0

Time = 0
    No field phi

Time = 0.0021
    Area vector of patch inlet0[1] = (0 0 -1.156109e-05)
    Area magnitude of patch inlet0[1] = 1.156109e-05
    Reading surfaceScalarField phi
    Integral of phi over patch inlet0[1] = -8.8518222e-06

Time = 0.004
    Area vector of patch inlet0[1] = (0 0 -1.156109e-05)
    Area magnitude of patch inlet0[1] = 1.156109e-05
    Reading surfaceScalarField phi
    Integral of phi over patch inlet0[1] = -8.7503069e-06

Time = 0.006
    Area vector of patch inlet0[1] = (0 0 -1.156109e-05)
    Area magnitude of patch inlet0[1] = 1.156109e-05
    Reading surfaceScalarField phi
    Integral of phi over patch inlet0[1] = -8.699714e-06

Time = 0.008
    Area vector of patch inlet0[1] = (0 0 -1.156109e-05)
    Area magnitude of patch inlet0[1] = 1.156109e-05
    Reading surfaceScalarField phi
    Integral of phi over patch inlet0[1] = -8.727788e-06

Time = 0.01
    Area vector of patch inlet0[1] = (0 0 -1.156109e-05)
    Area magnitude of patch inlet0[1] = 1.156109e-05
    Reading surfaceScalarField phi
    Integral of phi over patch inlet0[1] = -8.8505251e-06

Time = 0.02
    Area vector of patch inlet0[1] = (0 0 -1.156109e-05)
    Area magnitude of patch inlet0[1] = 1.156109e-05
    Reading surfaceScalarField phi
    Integral of phi over patch inlet0[1] = -8.9200814e-06

Time = 0.03
    Area vector of patch inlet0[1] = (0 0 -1.156109e-05)
    Area magnitude of patch inlet0[1] = 1.156109e-05
    Reading surfaceScalarField phi
    Integral of phi over patch inlet0[1] = -8.9862991e-06

Time = 0.04
    Area vector of patch inlet0[1] = (0 0 -1.156109e-05)
    Area magnitude of patch inlet0[1] = 1.156109e-05
    Reading surfaceScalarField phi
    Integral of phi over patch inlet0[1] = -9.2480293e-06

Time = 0.05
    Area vector of patch inlet0[1] = (0 0 -1.156109e-05)
    Area magnitude of patch inlet0[1] = 1.156109e-05
    Reading surfaceScalarField phi
    Integral of phi over patch inlet0[1] = -9.4262589e-06

Time = 0.06
    Area vector of patch inlet0[1] = (0 0 -1.156109e-05)
    Area magnitude of patch inlet0[1] = 1.156109e-05
    Reading surfaceScalarField phi
    Integral of phi over patch inlet0[1] = -9.4166499e-06

Time = 0.07
    Area vector of patch inlet0[1] = (0 0 -1.156109e-05)
    Area magnitude of patch inlet0[1] = 1.156109e-05
    Reading surfaceScalarField phi
    Integral of phi over patch inlet0[1] = -9.5779523e-06

Time = 0.08
    Area vector of patch inlet0[1] = (0 0 -1.156109e-05)
    Area magnitude of patch inlet0[1] = 1.156109e-05
    Reading surfaceScalarField phi
    Integral of phi over patch inlet0[1] = -9.7741518e-06

Time = 0.09
    Area vector of patch inlet0[1] = (0 0 -1.156109e-05)
    Area magnitude of patch inlet0[1] = 1.156109e-05
    Reading surfaceScalarField phi
    Integral of phi over patch inlet0[1] = -9.9977601e-06

Time = 0.1
    Area vector of patch inlet0[1] = (0 0 -1.156109e-05)
    Area magnitude of patch inlet0[1] = 1.156109e-05
    Reading surfaceScalarField phi
    Integral of phi over patch inlet0[1] = -1.0206668e-05

Time = 0.11
    Area vector of patch inlet0[1] = (0 0 -1.156109e-05)
    Area magnitude of patch inlet0[1] = 1.156109e-05
    Reading surfaceScalarField phi
    Integral of phi over patch inlet0[1] = -9.797954e-06

Time = 0.12
    Area vector of patch inlet0[1] = (0 0 -1.156109e-05)
    Area magnitude of patch inlet0[1] = 1.156109e-05
    Reading surfaceScalarField phi
    Integral of phi over patch inlet0[1] = -1.0148691e-05

Time = 0.13
    Area vector of patch inlet0[1] = (0 0 -1.156109e-05)
    Area magnitude of patch inlet0[1] = 1.156109e-05
    Reading surfaceScalarField phi
    Integral of phi over patch inlet0[1] = -1.0261651e-05

Time = 0.14
    Area vector of patch inlet0[1] = (0 0 -1.156109e-05)
    Area magnitude of patch inlet0[1] = 1.156109e-05
    Reading surfaceScalarField phi
    Integral of phi over patch inlet0[1] = -1.0596586e-05

Time = 0.15
    Area vector of patch inlet0[1] = (0 0 -1.156109e-05)
    Area magnitude of patch inlet0[1] = 1.156109e-05
    Reading surfaceScalarField phi
    Integral of phi over patch inlet0[1] = -1.0445116e-05

Time = 0.16
    Area vector of patch inlet0[1] = (0 0 -1.156109e-05)
    Area magnitude of patch inlet0[1] = 1.156109e-05
    Reading surfaceScalarField phi
    Integral of phi over patch inlet0[1] = -1.0560619e-05

Time = 0.17
    Area vector of patch inlet0[1] = (0 0 -1.156109e-05)
    Area magnitude of patch inlet0[1] = 1.156109e-05
    Reading surfaceScalarField phi
    Integral of phi over patch inlet0[1] = -1.061273e-05

Time = 0.18
    Area vector of patch inlet0[1] = (0 0 -1.156109e-05)
    Area magnitude of patch inlet0[1] = 1.156109e-05
    Reading surfaceScalarField phi
    Integral of phi over patch inlet0[1] = -1.1010366e-05

Time = 0.19
    Area vector of patch inlet0[1] = (0 0 -1.156109e-05)
    Area magnitude of patch inlet0[1] = 1.156109e-05
    Reading surfaceScalarField phi
    Integral of phi over patch inlet0[1] = -1.1053001e-05

Time = 0.2
    Area vector of patch inlet0[1] = (0 0 -1.156109e-05)
    Area magnitude of patch inlet0[1] = 1.156109e-05
    Reading surfaceScalarField phi
    Integral of phi over patch inlet0[1] = -1.1023353e-05

Time = 0.21
    Area vector of patch inlet0[1] = (0 0 -1.156109e-05)
    Area magnitude of patch inlet0[1] = 1.156109e-05
    Reading surfaceScalarField phi
    Integral of phi over patch inlet0[1] = -1.0977106e-05

Time = 0.22
    Area vector of patch inlet0[1] = (0 0 -1.156109e-05)
    Area magnitude of patch inlet0[1] = 1.156109e-05
    Reading surfaceScalarField phi
    Integral of phi over patch inlet0[1] = -1.1276286e-05

Time = 0.23
    Area vector of patch inlet0[1] = (0 0 -1.156109e-05)
    Area magnitude of patch inlet0[1] = 1.156109e-05
    Reading surfaceScalarField phi
    Integral of phi over patch inlet0[1] = -1.1401854e-05

Time = 0.24
    Area vector of patch inlet0[1] = (0 0 -1.156109e-05)
    Area magnitude of patch inlet0[1] = 1.156109e-05
    Reading surfaceScalarField phi
    Integral of phi over patch inlet0[1] = -1.1501269e-05

Time = 0.25
    Area vector of patch inlet0[1] = (0 0 -1.156109e-05)
    Area magnitude of patch inlet0[1] = 1.156109e-05
    Reading surfaceScalarField phi
    Integral of phi over patch inlet0[1] = -1.1428069e-05

Time = 0.26
    Area vector of patch inlet0[1] = (0 0 -1.156109e-05)
    Area magnitude of patch inlet0[1] = 1.156109e-05
    Reading surfaceScalarField phi
    Integral of phi over patch inlet0[1] = -1.1648312e-05

Time = 0.27
    Area vector of patch inlet0[1] = (0 0 -1.156109e-05)
    Area magnitude of patch inlet0[1] = 1.156109e-05
    Reading surfaceScalarField phi
    Integral of phi over patch inlet0[1] = -1.1770117e-05

Time = 0.28
    Area vector of patch inlet0[1] = (0 0 -1.156109e-05)
    Area magnitude of patch inlet0[1] = 1.156109e-05
    Reading surfaceScalarField phi
    Integral of phi over patch inlet0[1] = -1.1930621e-05

Time = 0.29
    Area vector of patch inlet0[1] = (0 0 -1.156109e-05)
    Area magnitude of patch inlet0[1] = 1.156109e-05
    Reading surfaceScalarField phi
    Integral of phi over patch inlet0[1] = -1.1901052e-05

Time = 0.3
    Area vector of patch inlet0[1] = (0 0 -1.156109e-05)
    Area magnitude of patch inlet0[1] = 1.156109e-05
    Reading surfaceScalarField phi
    Integral of phi over patch inlet0[1] = -1.2059143e-05

Time = 0.31
    Area vector of patch inlet0[1] = (0 0 -1.156109e-05)
    Area magnitude of patch inlet0[1] = 1.156109e-05
    Reading surfaceScalarField phi
    Integral of phi over patch inlet0[1] = -1.2222874e-05

Time = 0.32
    Area vector of patch inlet0[1] = (0 0 -1.156109e-05)
    Area magnitude of patch inlet0[1] = 1.156109e-05
    Reading surfaceScalarField phi
    Integral of phi over patch inlet0[1] = -1.2211541e-05

Time = 0.33
    Area vector of patch inlet0[1] = (0 0 -1.156109e-05)
    Area magnitude of patch inlet0[1] = 1.156109e-05
    Reading surfaceScalarField phi
    Integral of phi over patch inlet0[1] = -1.231067e-05

Time = 0.34
    Area vector of patch inlet0[1] = (0 0 -1.156109e-05)
    Area magnitude of patch inlet0[1] = 1.156109e-05
    Reading surfaceScalarField phi
    Integral of phi over patch inlet0[1] = -1.2420747e-05

Time = 0.35
    Area vector of patch inlet0[1] = (0 0 -1.156109e-05)
    Area magnitude of patch inlet0[1] = 1.156109e-05
    Reading surfaceScalarField phi
    Integral of phi over patch inlet0[1] = -1.2539854e-05

Time = 0.36
    Area vector of patch inlet0[1] = (0 0 -1.156109e-05)
    Area magnitude of patch inlet0[1] = 1.156109e-05
    Reading surfaceScalarField phi
    Integral of phi over patch inlet0[1] = -1.2535807e-05

Time = 0.37
    Area vector of patch inlet0[1] = (0 0 -1.156109e-05)
    Area magnitude of patch inlet0[1] = 1.156109e-05
    Reading surfaceScalarField phi
    Integral of phi over patch inlet0[1] = -1.2705206e-05

Time = 0.38
    Area vector of patch inlet0[1] = (0 0 -1.156109e-05)
    Area magnitude of patch inlet0[1] = 1.156109e-05
    Reading surfaceScalarField phi
    Integral of phi over patch inlet0[1] = -1.2811759e-05

Time = 0.39
    Area vector of patch inlet0[1] = (0 0 -1.156109e-05)
    Area magnitude of patch inlet0[1] = 1.156109e-05
    Reading surfaceScalarField phi
    Integral of phi over patch inlet0[1] = -1.277752e-05

Time = 0.4
    Area vector of patch inlet0[1] = (0 0 -1.156109e-05)
    Area magnitude of patch inlet0[1] = 1.156109e-05
    Reading surfaceScalarField phi
    Integral of phi over patch inlet0[1] = -1.3002906e-05

Time = 0.41
    Area vector of patch inlet0[1] = (0 0 -1.156109e-05)
    Area magnitude of patch inlet0[1] = 1.156109e-05
    Reading surfaceScalarField phi
    Integral of phi over patch inlet0[1] = -1.3054855e-05

Time = 0.42
    Area vector of patch inlet0[1] = (0 0 -1.156109e-05)
    Area magnitude of patch inlet0[1] = 1.156109e-05
    Reading surfaceScalarField phi
    Integral of phi over patch inlet0[1] = -1.3103754e-05

Time = 0.43
    Area vector of patch inlet0[1] = (0 0 -1.156109e-05)
    Area magnitude of patch inlet0[1] = 1.156109e-05
    Reading surfaceScalarField phi
    Integral of phi over patch inlet0[1] = -1.3180213e-05

Time = 0.44
    Area vector of patch inlet0[1] = (0 0 -1.156109e-05)
    Area magnitude of patch inlet0[1] = 1.156109e-05
    Reading surfaceScalarField phi
    Integral of phi over patch inlet0[1] = -1.32732e-05

Time = 0.45
    Area vector of patch inlet0[1] = (0 0 -1.156109e-05)
    Area magnitude of patch inlet0[1] = 1.156109e-05
    Reading surfaceScalarField phi
    Integral of phi over patch inlet0[1] = -1.3396455e-05

Time = 0.46
    Area vector of patch inlet0[1] = (0 0 -1.156109e-05)
    Area magnitude of patch inlet0[1] = 1.156109e-05
    Reading surfaceScalarField phi
    Integral of phi over patch inlet0[1] = -1.3503554e-05

Time = 0.47
    Area vector of patch inlet0[1] = (0 0 -1.156109e-05)
    Area magnitude of patch inlet0[1] = 1.156109e-05
    Reading surfaceScalarField phi
    Integral of phi over patch inlet0[1] = -1.3561822e-05

Time = 0.48
    Area vector of patch inlet0[1] = (0 0 -1.156109e-05)
    Area magnitude of patch inlet0[1] = 1.156109e-05
    Reading surfaceScalarField phi
    Integral of phi over patch inlet0[1] = -1.3777998e-05

Time = 0.49
    Area vector of patch inlet0[1] = (0 0 -1.156109e-05)
    Area magnitude of patch inlet0[1] = 1.156109e-05
    Reading surfaceScalarField phi
    Integral of phi over patch inlet0[1] = -1.3762938e-05

Time = 0.5
    Area vector of patch inlet0[1] = (0 0 -1.156109e-05)
    Area magnitude of patch inlet0[1] = 1.156109e-05
    Reading surfaceScalarField phi
    Integral of phi over patch inlet0[1] = -1.3764335e-05

Time = 0.51
    Area vector of patch inlet0[1] = (0 0 -1.156109e-05)
    Area magnitude of patch inlet0[1] = 1.156109e-05
    Reading surfaceScalarField phi
    Integral of phi over patch inlet0[1] = -1.3926486e-05

Time = 0.52
    Area vector of patch inlet0[1] = (0 0 -1.156109e-05)
    Area magnitude of patch inlet0[1] = 1.156109e-05
    Reading surfaceScalarField phi
    Integral of phi over patch inlet0[1] = -1.4010551e-05

Time = 0.53
    Area vector of patch inlet0[1] = (0 0 -1.156109e-05)
    Area magnitude of patch inlet0[1] = 1.156109e-05
    Reading surfaceScalarField phi
    Integral of phi over patch inlet0[1] = -1.3999332e-05

Time = 0.54
    Area vector of patch inlet0[1] = (0 0 -1.156109e-05)
    Area magnitude of patch inlet0[1] = 1.156109e-05
    Reading surfaceScalarField phi
    Integral of phi over patch inlet0[1] = -1.4152198e-05

Time = 0.55
    Area vector of patch inlet0[1] = (0 0 -1.156109e-05)
    Area magnitude of patch inlet0[1] = 1.156109e-05
    Reading surfaceScalarField phi
    Integral of phi over patch inlet0[1] = -1.4330628e-05

Time = 0.56
    Area vector of patch inlet0[1] = (0 0 -1.156109e-05)
    Area magnitude of patch inlet0[1] = 1.156109e-05
    Reading surfaceScalarField phi
    Integral of phi over patch inlet0[1] = -1.4219048e-05

Time = 0.57
    Area vector of patch inlet0[1] = (0 0 -1.156109e-05)
    Area magnitude of patch inlet0[1] = 1.156109e-05
    Reading surfaceScalarField phi
    Integral of phi over patch inlet0[1] = -1.4410022e-05

Time = 0.58
    Area vector of patch inlet0[1] = (0 0 -1.156109e-05)
    Area magnitude of patch inlet0[1] = 1.156109e-05
    Reading surfaceScalarField phi
    Integral of phi over patch inlet0[1] = -1.4486457e-05

Time = 0.59
    Area vector of patch inlet0[1] = (0 0 -1.156109e-05)
    Area magnitude of patch inlet0[1] = 1.156109e-05
    Reading surfaceScalarField phi
    Integral of phi over patch inlet0[1] = -1.4446022e-05

Time = 0.6
    Area vector of patch inlet0[1] = (0 0 -1.156109e-05)
    Area magnitude of patch inlet0[1] = 1.156109e-05
    Reading surfaceScalarField phi
    Integral of phi over patch inlet0[1] = -1.4551587e-05

Time = 0.61
    Area vector of patch inlet0[1] = (0 0 -1.156109e-05)
    Area magnitude of patch inlet0[1] = 1.156109e-05
    Reading surfaceScalarField phi
    Integral of phi over patch inlet0[1] = -1.4714351e-05

Time = 0.62
    Area vector of patch inlet0[1] = (0 0 -1.156109e-05)
    Area magnitude of patch inlet0[1] = 1.156109e-05
    Reading surfaceScalarField phi
    Integral of phi over patch inlet0[1] = -1.4723754e-05

Time = 0.63
    Area vector of patch inlet0[1] = (0 0 -1.156109e-05)
    Area magnitude of patch inlet0[1] = 1.156109e-05
    Reading surfaceScalarField phi
    Integral of phi over patch inlet0[1] = -1.4791474e-05

Time = 0.64
    Area vector of patch inlet0[1] = (0 0 -1.156109e-05)
    Area magnitude of patch inlet0[1] = 1.156109e-05
    Reading surfaceScalarField phi
    Integral of phi over patch inlet0[1] = -1.4885563e-05

Time = 0.65
    Area vector of patch inlet0[1] = (0 0 -1.156109e-05)
    Area magnitude of patch inlet0[1] = 1.156109e-05
    Reading surfaceScalarField phi
    Integral of phi over patch inlet0[1] = -1.4984798e-05

Time = 0.66
    Area vector of patch inlet0[1] = (0 0 -1.156109e-05)
    Area magnitude of patch inlet0[1] = 1.156109e-05
    Reading surfaceScalarField phi
    Integral of phi over patch inlet0[1] = -1.495958e-05

Time = 0.67
    Area vector of patch inlet0[1] = (0 0 -1.156109e-05)
    Area magnitude of patch inlet0[1] = 1.156109e-05
    Reading surfaceScalarField phi
    Integral of phi over patch inlet0[1] = -1.509904e-05

Time = 0.68
    Area vector of patch inlet0[1] = (0 0 -1.156109e-05)
    Area magnitude of patch inlet0[1] = 1.156109e-05
    Reading surfaceScalarField phi
    Integral of phi over patch inlet0[1] = -1.5134836e-05

Time = 0.69
    Area vector of patch inlet0[1] = (0 0 -1.156109e-05)
    Area magnitude of patch inlet0[1] = 1.156109e-05
    Reading surfaceScalarField phi
    Integral of phi over patch inlet0[1] = -1.512561e-05

Time = 0.7
    Area vector of patch inlet0[1] = (0 0 -1.156109e-05)
    Area magnitude of patch inlet0[1] = 1.156109e-05
    Reading surfaceScalarField phi
    Integral of phi over patch inlet0[1] = -1.527914e-05

Time = 0.71
    Area vector of patch inlet0[1] = (0 0 -1.156109e-05)
    Area magnitude of patch inlet0[1] = 1.156109e-05
    Reading surfaceScalarField phi
    Integral of phi over patch inlet0[1] = -1.5293757e-05

Time = 0.72
    Area vector of patch inlet0[1] = (0 0 -1.156109e-05)
    Area magnitude of patch inlet0[1] = 1.156109e-05
    Reading surfaceScalarField phi
    Integral of phi over patch inlet0[1] = -1.5291737e-05

Time = 0.73
    Area vector of patch inlet0[1] = (0 0 -1.156109e-05)
    Area magnitude of patch inlet0[1] = 1.156109e-05
    Reading surfaceScalarField phi
    Integral of phi over patch inlet0[1] = -1.5413993e-05

Time = 0.74
    Area vector of patch inlet0[1] = (0 0 -1.156109e-05)
    Area magnitude of patch inlet0[1] = 1.156109e-05
    Reading surfaceScalarField phi
    Integral of phi over patch inlet0[1] = -1.5567451e-05

Time = 0.75
    Area vector of patch inlet0[1] = (0 0 -1.156109e-05)
    Area magnitude of patch inlet0[1] = 1.156109e-05
    Reading surfaceScalarField phi
    Integral of phi over patch inlet0[1] = -1.5533766e-05

Time = 0.76
    Area vector of patch inlet0[1] = (0 0 -1.156109e-05)
    Area magnitude of patch inlet0[1] = 1.156109e-05
    Reading surfaceScalarField phi
    Integral of phi over patch inlet0[1] = -1.563481e-05

Time = 0.77
    Area vector of patch inlet0[1] = (0 0 -1.156109e-05)
    Area magnitude of patch inlet0[1] = 1.156109e-05
    Reading surfaceScalarField phi
    Integral of phi over patch inlet0[1] = -1.5660875e-05

Time = 0.78
    Area vector of patch inlet0[1] = (0 0 -1.156109e-05)
    Area magnitude of patch inlet0[1] = 1.156109e-05
    Reading surfaceScalarField phi
    Integral of phi over patch inlet0[1] = -1.5745828e-05

Time = 0.79
    Area vector of patch inlet0[1] = (0 0 -1.156109e-05)
    Area magnitude of patch inlet0[1] = 1.156109e-05
    Reading surfaceScalarField phi
    Integral of phi over patch inlet0[1] = -1.5926682e-05

Time = 0.8
    Area vector of patch inlet0[1] = (0 0 -1.156109e-05)
    Area magnitude of patch inlet0[1] = 1.156109e-05
    Reading surfaceScalarField phi
    Integral of phi over patch inlet0[1] = -1.585113e-05

Time = 0.81
    Area vector of patch inlet0[1] = (0 0 -1.156109e-05)
    Area magnitude of patch inlet0[1] = 1.156109e-05
    Reading surfaceScalarField phi
    Integral of phi over patch inlet0[1] = -1.5925035e-05

Time = 0.82
    Area vector of patch inlet0[1] = (0 0 -1.156109e-05)
    Area magnitude of patch inlet0[1] = 1.156109e-05
    Reading surfaceScalarField phi
    Integral of phi over patch inlet0[1] = -1.6124288e-05

Time = 0.83
    Area vector of patch inlet0[1] = (0 0 -1.156109e-05)
    Area magnitude of patch inlet0[1] = 1.156109e-05
    Reading surfaceScalarField phi
    Integral of phi over patch inlet0[1] = -1.6081672e-05

Time = 0.84
    Area vector of patch inlet0[1] = (0 0 -1.156109e-05)
    Area magnitude of patch inlet0[1] = 1.156109e-05
    Reading surfaceScalarField phi
    Integral of phi over patch inlet0[1] = -1.5987823e-05

Time = 0.85
    Area vector of patch inlet0[1] = (0 0 -1.156109e-05)
    Area magnitude of patch inlet0[1] = 1.156109e-05
    Reading surfaceScalarField phi
    Integral of phi over patch inlet0[1] = -1.6179235e-05

Time = 0.86
    Area vector of patch inlet0[1] = (0 0 -1.156109e-05)
    Area magnitude of patch inlet0[1] = 1.156109e-05
    Reading surfaceScalarField phi
    Integral of phi over patch inlet0[1] = -1.6311774e-05

Time = 0.87
    Area vector of patch inlet0[1] = (0 0 -1.156109e-05)
    Area magnitude of patch inlet0[1] = 1.156109e-05
    Reading surfaceScalarField phi
    Integral of phi over patch inlet0[1] = -1.6102008e-05

Time = 0.88
    Area vector of patch inlet0[1] = (0 0 -1.156109e-05)
    Area magnitude of patch inlet0[1] = 1.156109e-05
    Reading surfaceScalarField phi
    Integral of phi over patch inlet0[1] = -1.631491e-05

Time = 0.89
    Area vector of patch inlet0[1] = (0 0 -1.156109e-05)
    Area magnitude of patch inlet0[1] = 1.156109e-05
    Reading surfaceScalarField phi
    Integral of phi over patch inlet0[1] = -1.6410818e-05

Time = 0.9
    Area vector of patch inlet0[1] = (0 0 -1.156109e-05)
    Area magnitude of patch inlet0[1] = 1.156109e-05
    Reading surfaceScalarField phi
    Integral of phi over patch inlet0[1] = -1.6464374e-05

Time = 0.91
    Area vector of patch inlet0[1] = (0 0 -1.156109e-05)
    Area magnitude of patch inlet0[1] = 1.156109e-05
    Reading surfaceScalarField phi
    Integral of phi over patch inlet0[1] = -1.6418053e-05

Time = 0.92
    Area vector of patch inlet0[1] = (0 0 -1.156109e-05)
    Area magnitude of patch inlet0[1] = 1.156109e-05
    Reading surfaceScalarField phi
    Integral of phi over patch inlet0[1] = -1.6527779e-05

Time = 0.93
    Area vector of patch inlet0[1] = (0 0 -1.156109e-05)
    Area magnitude of patch inlet0[1] = 1.156109e-05
    Reading surfaceScalarField phi
    Integral of phi over patch inlet0[1] = -1.6540235e-05

Time = 0.94
    Area vector of patch inlet0[1] = (0 0 -1.156109e-05)
    Area magnitude of patch inlet0[1] = 1.156109e-05
    Reading surfaceScalarField phi
    Integral of phi over patch inlet0[1] = -1.6673592e-05

Time = 0.95
    Area vector of patch inlet0[1] = (0 0 -1.156109e-05)
    Area magnitude of patch inlet0[1] = 1.156109e-05
    Reading surfaceScalarField phi
    Integral of phi over patch inlet0[1] = -1.67279e-05

Time = 0.96
    Area vector of patch inlet0[1] = (0 0 -1.156109e-05)
    Area magnitude of patch inlet0[1] = 1.156109e-05
    Reading surfaceScalarField phi
    Integral of phi over patch inlet0[1] = -1.6571746e-05

Time = 0.97
    Area vector of patch inlet0[1] = (0 0 -1.156109e-05)
    Area magnitude of patch inlet0[1] = 1.156109e-05
    Reading surfaceScalarField phi
    Integral of phi over patch inlet0[1] = -1.6716152e-05

Time = 0.98
    Area vector of patch inlet0[1] = (0 0 -1.156109e-05)
    Area magnitude of patch inlet0[1] = 1.156109e-05
    Reading surfaceScalarField phi
    Integral of phi over patch inlet0[1] = -1.6910199e-05

Time = 0.99
    Area vector of patch inlet0[1] = (0 0 -1.156109e-05)
    Area magnitude of patch inlet0[1] = 1.156109e-05
    Reading surfaceScalarField phi
    Integral of phi over patch inlet0[1] = -1.6881037e-05

Time = 1
    Area vector of patch inlet0[1] = (0 0 -1.156109e-05)
    Area magnitude of patch inlet0[1] = 1.156109e-05
    Reading surfaceScalarField phi
    Integral of phi over patch inlet0[1] = -1.6957464e-05

Time = 1.01
    Area vector of patch inlet0[1] = (0 0 -1.156109e-05)
    Area magnitude of patch inlet0[1] = 1.156109e-05
    Reading surfaceScalarField phi
    Integral of phi over patch inlet0[1] = -1.6826489e-05

Time = 1.02
    Area vector of patch inlet0[1] = (0 0 -1.156109e-05)
    Area magnitude of patch inlet0[1] = 1.156109e-05
    Reading surfaceScalarField phi
    Integral of phi over patch inlet0[1] = -1.6830493e-05

Time = 1.03
    Area vector of patch inlet0[1] = (0 0 -1.156109e-05)
    Area magnitude of patch inlet0[1] = 1.156109e-05
    Reading surfaceScalarField phi
    Integral of phi over patch inlet0[1] = -1.7205002e-05

Time = 1.04
    Area vector of patch inlet0[1] = (0 0 -1.156109e-05)
    Area magnitude of patch inlet0[1] = 1.156109e-05
    Reading surfaceScalarField phi
    Integral of phi over patch inlet0[1] = -1.7179737e-05

Time = 1.05
    Area vector of patch inlet0[1] = (0 0 -1.156109e-05)
    Area magnitude of patch inlet0[1] = 1.156109e-05
    Reading surfaceScalarField phi
    Integral of phi over patch inlet0[1] = -1.7013953e-05

Time = 1.06
    Area vector of patch inlet0[1] = (0 0 -1.156109e-05)
    Area magnitude of patch inlet0[1] = 1.156109e-05
    Reading surfaceScalarField phi
    Integral of phi over patch inlet0[1] = -1.7116518e-05

Time = 1.07
    Area vector of patch inlet0[1] = (0 0 -1.156109e-05)
    Area magnitude of patch inlet0[1] = 1.156109e-05
    Reading surfaceScalarField phi
    Integral of phi over patch inlet0[1] = -1.7129141e-05

Time = 1.08
    Area vector of patch inlet0[1] = (0 0 -1.156109e-05)
    Area magnitude of patch inlet0[1] = 1.156109e-05
    Reading surfaceScalarField phi
    Integral of phi over patch inlet0[1] = -1.7310116e-05

Time = 1.09
    Area vector of patch inlet0[1] = (0 0 -1.156109e-05)
    Area magnitude of patch inlet0[1] = 1.156109e-05
    Reading surfaceScalarField phi
    Integral of phi over patch inlet0[1] = -1.7350415e-05

Time = 1.1
    Area vector of patch inlet0[1] = (0 0 -1.156109e-05)
    Area magnitude of patch inlet0[1] = 1.156109e-05
    Reading surfaceScalarField phi
    Integral of phi over patch inlet0[1] = -1.7214886e-05

Time = 1.11
    Area vector of patch inlet0[1] = (0 0 -1.156109e-05)
    Area magnitude of patch inlet0[1] = 1.156109e-05
    Reading surfaceScalarField phi
    Integral of phi over patch inlet0[1] = -1.7345693e-05

Time = 1.12
    Area vector of patch inlet0[1] = (0 0 -1.156109e-05)
    Area magnitude of patch inlet0[1] = 1.156109e-05
    Reading surfaceScalarField phi
    Integral of phi over patch inlet0[1] = -1.7473644e-05

Time = 1.13
    Area vector of patch inlet0[1] = (0 0 -1.156109e-05)
    Area magnitude of patch inlet0[1] = 1.156109e-05
    Reading surfaceScalarField phi
    Integral of phi over patch inlet0[1] = -1.7380027e-05

Time = 1.14
    Area vector of patch inlet0[1] = (0 0 -1.156109e-05)
    Area magnitude of patch inlet0[1] = 1.156109e-05
    Reading surfaceScalarField phi
    Integral of phi over patch inlet0[1] = -1.760435e-05

Time = 1.15
    Area vector of patch inlet0[1] = (0 0 -1.156109e-05)
    Area magnitude of patch inlet0[1] = 1.156109e-05
    Reading surfaceScalarField phi
    Integral of phi over patch inlet0[1] = -1.7636741e-05

Time = 1.16
    Area vector of patch inlet0[1] = (0 0 -1.156109e-05)
    Area magnitude of patch inlet0[1] = 1.156109e-05
    Reading surfaceScalarField phi
    Integral of phi over patch inlet0[1] = -1.756832e-05

Time = 1.17
    Area vector of patch inlet0[1] = (0 0 -1.156109e-05)
    Area magnitude of patch inlet0[1] = 1.156109e-05
    Reading surfaceScalarField phi
    Integral of phi over patch inlet0[1] = -1.7629797e-05

Time = 1.18
    Area vector of patch inlet0[1] = (0 0 -1.156109e-05)
    Area magnitude of patch inlet0[1] = 1.156109e-05
    Reading surfaceScalarField phi
    Integral of phi over patch inlet0[1] = -1.7469343e-05

Time = 1.19
    Area vector of patch inlet0[1] = (0 0 -1.156109e-05)
    Area magnitude of patch inlet0[1] = 1.156109e-05
    Reading surfaceScalarField phi
    Integral of phi over patch inlet0[1] = -1.7702214e-05

Time = 1.2
    Area vector of patch inlet0[1] = (0 0 -1.156109e-05)
    Area magnitude of patch inlet0[1] = 1.156109e-05
    Reading surfaceScalarField phi
    Integral of phi over patch inlet0[1] = -1.7861374e-05

Time = 1.21
    Area vector of patch inlet0[1] = (0 0 -1.156109e-05)
    Area magnitude of patch inlet0[1] = 1.156109e-05
    Reading surfaceScalarField phi
    Integral of phi over patch inlet0[1] = -1.7780483e-05

Time = 1.22
    Area vector of patch inlet0[1] = (0 0 -1.156109e-05)
    Area magnitude of patch inlet0[1] = 1.156109e-05
    Reading surfaceScalarField phi
    Integral of phi over patch inlet0[1] = -1.7794163e-05

Time = 1.23
    Area vector of patch inlet0[1] = (0 0 -1.156109e-05)
    Area magnitude of patch inlet0[1] = 1.156109e-05
    Reading surfaceScalarField phi
    Integral of phi over patch inlet0[1] = -1.7747775e-05

Time = 1.24
    Area vector of patch inlet0[1] = (0 0 -1.156109e-05)
    Area magnitude of patch inlet0[1] = 1.156109e-05
    Reading surfaceScalarField phi
    Integral of phi over patch inlet0[1] = -1.7815254e-05

Time = 1.25
    Area vector of patch inlet0[1] = (0 0 -1.156109e-05)
    Area magnitude of patch inlet0[1] = 1.156109e-05
    Reading surfaceScalarField phi
    Integral of phi over patch inlet0[1] = -1.8000499e-05

Time = 1.26
    Area vector of patch inlet0[1] = (0 0 -1.156109e-05)
    Area magnitude of patch inlet0[1] = 1.156109e-05
    Reading surfaceScalarField phi
    Integral of phi over patch inlet0[1] = -1.7981093e-05

Time = 1.27
    Area vector of patch inlet0[1] = (0 0 -1.156109e-05)
    Area magnitude of patch inlet0[1] = 1.156109e-05
    Reading surfaceScalarField phi
    Integral of phi over patch inlet0[1] = -1.7931675e-05

Time = 1.28
    Area vector of patch inlet0[1] = (0 0 -1.156109e-05)
    Area magnitude of patch inlet0[1] = 1.156109e-05
    Reading surfaceScalarField phi
    Integral of phi over patch inlet0[1] = -1.8073952e-05

Time = 1.29
    Area vector of patch inlet0[1] = (0 0 -1.156109e-05)
    Area magnitude of patch inlet0[1] = 1.156109e-05
    Reading surfaceScalarField phi
    Integral of phi over patch inlet0[1] = -1.8005717e-05

Time = 1.3
    Area vector of patch inlet0[1] = (0 0 -1.156109e-05)
    Area magnitude of patch inlet0[1] = 1.156109e-05
    Reading surfaceScalarField phi
    Integral of phi over patch inlet0[1] = -1.8016985e-05

Time = 1.31
    Area vector of patch inlet0[1] = (0 0 -1.156109e-05)
    Area magnitude of patch inlet0[1] = 1.156109e-05
    Reading surfaceScalarField phi
    Integral of phi over patch inlet0[1] = -1.8245185e-05

Time = 1.32
    Area vector of patch inlet0[1] = (0 0 -1.156109e-05)
    Area magnitude of patch inlet0[1] = 1.156109e-05
    Reading surfaceScalarField phi
    Integral of phi over patch inlet0[1] = -1.8060186e-05

Time = 1.33
    Area vector of patch inlet0[1] = (0 0 -1.156109e-05)
    Area magnitude of patch inlet0[1] = 1.156109e-05
    Reading surfaceScalarField phi
    Integral of phi over patch inlet0[1] = -1.8154939e-05

Time = 1.34
    Area vector of patch inlet0[1] = (0 0 -1.156109e-05)
    Area magnitude of patch inlet0[1] = 1.156109e-05
    Reading surfaceScalarField phi
    Integral of phi over patch inlet0[1] = -1.8290857e-05

Time = 1.35
    Area vector of patch inlet0[1] = (0 0 -1.156109e-05)
    Area magnitude of patch inlet0[1] = 1.156109e-05
    Reading surfaceScalarField phi
    Integral of phi over patch inlet0[1] = -1.8180238e-05

Time = 1.36
    Area vector of patch inlet0[1] = (0 0 -1.156109e-05)
    Area magnitude of patch inlet0[1] = 1.156109e-05
    Reading surfaceScalarField phi
    Integral of phi over patch inlet0[1] = -1.8370067e-05

Time = 1.37
    Area vector of patch inlet0[1] = (0 0 -1.156109e-05)
    Area magnitude of patch inlet0[1] = 1.156109e-05
    Reading surfaceScalarField phi
    Integral of phi over patch inlet0[1] = -1.8158272e-05

Time = 1.38
    Area vector of patch inlet0[1] = (0 0 -1.156109e-05)
    Area magnitude of patch inlet0[1] = 1.156109e-05
    Reading surfaceScalarField phi
    Integral of phi over patch inlet0[1] = -1.8252924e-05

Time = 1.39
    Area vector of patch inlet0[1] = (0 0 -1.156109e-05)
    Area magnitude of patch inlet0[1] = 1.156109e-05
    Reading surfaceScalarField phi
    Integral of phi over patch inlet0[1] = -1.8338516e-05

Time = 1.4
    Area vector of patch inlet0[1] = (0 0 -1.156109e-05)
    Area magnitude of patch inlet0[1] = 1.156109e-05
    Reading surfaceScalarField phi
    Integral of phi over patch inlet0[1] = -1.8334606e-05

Time = 1.41
    Area vector of patch inlet0[1] = (0 0 -1.156109e-05)
    Area magnitude of patch inlet0[1] = 1.156109e-05
    Reading surfaceScalarField phi
    Integral of phi over patch inlet0[1] = -1.8465421e-05

Time = 1.42
    Area vector of patch inlet0[1] = (0 0 -1.156109e-05)
    Area magnitude of patch inlet0[1] = 1.156109e-05
    Reading surfaceScalarField phi
    Integral of phi over patch inlet0[1] = -1.8471651e-05

Time = 1.43
    Area vector of patch inlet0[1] = (0 0 -1.156109e-05)
    Area magnitude of patch inlet0[1] = 1.156109e-05
    Reading surfaceScalarField phi
    Integral of phi over patch inlet0[1] = -1.8334643e-05

Time = 1.44
    Area vector of patch inlet0[1] = (0 0 -1.156109e-05)
    Area magnitude of patch inlet0[1] = 1.156109e-05
    Reading surfaceScalarField phi
    Integral of phi over patch inlet0[1] = -1.8573032e-05

Time = 1.45
    Area vector of patch inlet0[1] = (0 0 -1.156109e-05)
    Area magnitude of patch inlet0[1] = 1.156109e-05
    Reading surfaceScalarField phi
    Integral of phi over patch inlet0[1] = -1.8396779e-05

Time = 1.46
    Area vector of patch inlet0[1] = (0 0 -1.156109e-05)
    Area magnitude of patch inlet0[1] = 1.156109e-05
    Reading surfaceScalarField phi
    Integral of phi over patch inlet0[1] = -1.8403704e-05

Time = 1.47
    Area vector of patch inlet0[1] = (0 0 -1.156109e-05)
    Area magnitude of patch inlet0[1] = 1.156109e-05
    Reading surfaceScalarField phi
    Integral of phi over patch inlet0[1] = -1.8561278e-05

Time = 1.48
    Area vector of patch inlet0[1] = (0 0 -1.156109e-05)
    Area magnitude of patch inlet0[1] = 1.156109e-05
    Reading surfaceScalarField phi
    Integral of phi over patch inlet0[1] = -1.8495825e-05

Time = 1.49
    Area vector of patch inlet0[1] = (0 0 -1.156109e-05)
    Area magnitude of patch inlet0[1] = 1.156109e-05
    Reading surfaceScalarField phi
    Integral of phi over patch inlet0[1] = -1.8637647e-05

Time = 1.5
    Area vector of patch inlet0[1] = (0 0 -1.156109e-05)
    Area magnitude of patch inlet0[1] = 1.156109e-05
    Reading surfaceScalarField phi
    Integral of phi over patch inlet0[1] = -1.8585201e-05

Time = 1.51
    Area vector of patch inlet0[1] = (0 0 -1.156109e-05)
    Area magnitude of patch inlet0[1] = 1.156109e-05
    Reading surfaceScalarField phi
    Integral of phi over patch inlet0[1] = -1.8526247e-05

Time = 1.52
    Area vector of patch inlet0[1] = (0 0 -1.156109e-05)
    Area magnitude of patch inlet0[1] = 1.156109e-05
    Reading surfaceScalarField phi
    Integral of phi over patch inlet0[1] = -1.8667227e-05

Time = 1.53
    Area vector of patch inlet0[1] = (0 0 -1.156109e-05)
    Area magnitude of patch inlet0[1] = 1.156109e-05
    Reading surfaceScalarField phi
    Integral of phi over patch inlet0[1] = -1.8468401e-05

Time = 1.54
    Area vector of patch inlet0[1] = (0 0 -1.156109e-05)
    Area magnitude of patch inlet0[1] = 1.156109e-05
    Reading surfaceScalarField phi
    Integral of phi over patch inlet0[1] = -1.8681284e-05

Time = 1.55
    Area vector of patch inlet0[1] = (0 0 -1.156109e-05)
    Area magnitude of patch inlet0[1] = 1.156109e-05
    Reading surfaceScalarField phi
    Integral of phi over patch inlet0[1] = -1.8682619e-05

Time = 1.56
    Area vector of patch inlet0[1] = (0 0 -1.156109e-05)
    Area magnitude of patch inlet0[1] = 1.156109e-05
    Reading surfaceScalarField phi
    Integral of phi over patch inlet0[1] = -1.8538907e-05

Time = 1.57
    Area vector of patch inlet0[1] = (0 0 -1.156109e-05)
    Area magnitude of patch inlet0[1] = 1.156109e-05
    Reading surfaceScalarField phi
    Integral of phi over patch inlet0[1] = -1.8896006e-05

Time = 1.58
    Area vector of patch inlet0[1] = (0 0 -1.156109e-05)
    Area magnitude of patch inlet0[1] = 1.156109e-05
    Reading surfaceScalarField phi
    Integral of phi over patch inlet0[1] = -1.8536852e-05

Time = 1.59
    Area vector of patch inlet0[1] = (0 0 -1.156109e-05)
    Area magnitude of patch inlet0[1] = 1.156109e-05
    Reading surfaceScalarField phi
    Integral of phi over patch inlet0[1] = -1.8676856e-05

Time = 1.6
    Area vector of patch inlet0[1] = (0 0 -1.156109e-05)
    Area magnitude of patch inlet0[1] = 1.156109e-05
    Reading surfaceScalarField phi
    Integral of phi over patch inlet0[1] = -1.8778111e-05

Time = 1.61
    Area vector of patch inlet0[1] = (0 0 -1.156109e-05)
    Area magnitude of patch inlet0[1] = 1.156109e-05
    Reading surfaceScalarField phi
    Integral of phi over patch inlet0[1] = -1.8738053e-05

Time = 1.62
    Area vector of patch inlet0[1] = (0 0 -1.156109e-05)
    Area magnitude of patch inlet0[1] = 1.156109e-05
    Reading surfaceScalarField phi
    Integral of phi over patch inlet0[1] = -1.8872484e-05

Time = 1.63
    Area vector of patch inlet0[1] = (0 0 -1.156109e-05)
    Area magnitude of patch inlet0[1] = 1.156109e-05
    Reading surfaceScalarField phi
    Integral of phi over patch inlet0[1] = -1.8676202e-05

Time = 1.64
    Area vector of patch inlet0[1] = (0 0 -1.156109e-05)
    Area magnitude of patch inlet0[1] = 1.156109e-05
    Reading surfaceScalarField phi
    Integral of phi over patch inlet0[1] = -1.8942633e-05

Time = 1.65
    Area vector of patch inlet0[1] = (0 0 -1.156109e-05)
    Area magnitude of patch inlet0[1] = 1.156109e-05
    Reading surfaceScalarField phi
    Integral of phi over patch inlet0[1] = -1.8773614e-05

Time = 1.66
    Area vector of patch inlet0[1] = (0 0 -1.156109e-05)
    Area magnitude of patch inlet0[1] = 1.156109e-05
    Reading surfaceScalarField phi
    Integral of phi over patch inlet0[1] = -1.8968146e-05

Time = 1.67
    Area vector of patch inlet0[1] = (0 0 -1.156109e-05)
    Area magnitude of patch inlet0[1] = 1.156109e-05
    Reading surfaceScalarField phi
    Integral of phi over patch inlet0[1] = -1.9114375e-05

Time = 1.68
    Area vector of patch inlet0[1] = (0 0 -1.156109e-05)
    Area magnitude of patch inlet0[1] = 1.156109e-05
    Reading surfaceScalarField phi
    Integral of phi over patch inlet0[1] = -1.8835757e-05

Time = 1.69
    Area vector of patch inlet0[1] = (0 0 -1.156109e-05)
    Area magnitude of patch inlet0[1] = 1.156109e-05
    Reading surfaceScalarField phi
    Integral of phi over patch inlet0[1] = -1.9009762e-05

Time = 1.7
    Area vector of patch inlet0[1] = (0 0 -1.156109e-05)
    Area magnitude of patch inlet0[1] = 1.156109e-05
    Reading surfaceScalarField phi
    Integral of phi over patch inlet0[1] = -1.8882159e-05

Time = 1.71
    Area vector of patch inlet0[1] = (0 0 -1.156109e-05)
    Area magnitude of patch inlet0[1] = 1.156109e-05
    Reading surfaceScalarField phi
    Integral of phi over patch inlet0[1] = -1.8883114e-05

Time = 1.72
    Area vector of patch inlet0[1] = (0 0 -1.156109e-05)
    Area magnitude of patch inlet0[1] = 1.156109e-05
    Reading surfaceScalarField phi
    Integral of phi over patch inlet0[1] = -1.9207556e-05

Time = 1.73
    Area vector of patch inlet0[1] = (0 0 -1.156109e-05)
    Area magnitude of patch inlet0[1] = 1.156109e-05
    Reading surfaceScalarField phi
    Integral of phi over patch inlet0[1] = -1.9012233e-05

Time = 1.74
    Area vector of patch inlet0[1] = (0 0 -1.156109e-05)
    Area magnitude of patch inlet0[1] = 1.156109e-05
    Reading surfaceScalarField phi
    Integral of phi over patch inlet0[1] = -1.9083356e-05

Time = 1.75
    Area vector of patch inlet0[1] = (0 0 -1.156109e-05)
    Area magnitude of patch inlet0[1] = 1.156109e-05
    Reading surfaceScalarField phi
    Integral of phi over patch inlet0[1] = -1.8971656e-05

Time = 1.76
    Area vector of patch inlet0[1] = (0 0 -1.156109e-05)
    Area magnitude of patch inlet0[1] = 1.156109e-05
    Reading surfaceScalarField phi
    Integral of phi over patch inlet0[1] = -1.9194228e-05

Time = 1.77
    Area vector of patch inlet0[1] = (0 0 -1.156109e-05)
    Area magnitude of patch inlet0[1] = 1.156109e-05
    Reading surfaceScalarField phi
    Integral of phi over patch inlet0[1] = -1.9217366e-05

Time = 1.78
    Area vector of patch inlet0[1] = (0 0 -1.156109e-05)
    Area magnitude of patch inlet0[1] = 1.156109e-05
    Reading surfaceScalarField phi
    Integral of phi over patch inlet0[1] = -1.9100826e-05

Time = 1.79
    Area vector of patch inlet0[1] = (0 0 -1.156109e-05)
    Area magnitude of patch inlet0[1] = 1.156109e-05
    Reading surfaceScalarField phi
    Integral of phi over patch inlet0[1] = -1.9286847e-05

Time = 1.8
    Area vector of patch inlet0[1] = (0 0 -1.156109e-05)
    Area magnitude of patch inlet0[1] = 1.156109e-05
    Reading surfaceScalarField phi
    Integral of phi over patch inlet0[1] = -1.9192195e-05

Time = 1.81
    Area vector of patch inlet0[1] = (0 0 -1.156109e-05)
    Area magnitude of patch inlet0[1] = 1.156109e-05
    Reading surfaceScalarField phi
    Integral of phi over patch inlet0[1] = -1.924113e-05

Time = 1.82
    Area vector of patch inlet0[1] = (0 0 -1.156109e-05)
    Area magnitude of patch inlet0[1] = 1.156109e-05
    Reading surfaceScalarField phi
    Integral of phi over patch inlet0[1] = -1.9337145e-05

Time = 1.83
    Area vector of patch inlet0[1] = (0 0 -1.156109e-05)
    Area magnitude of patch inlet0[1] = 1.156109e-05
    Reading surfaceScalarField phi
    Integral of phi over patch inlet0[1] = -1.9265343e-05

Time = 1.84
    Area vector of patch inlet0[1] = (0 0 -1.156109e-05)
    Area magnitude of patch inlet0[1] = 1.156109e-05
    Reading surfaceScalarField phi
    Integral of phi over patch inlet0[1] = -1.9306205e-05

Time = 1.85
    Area vector of patch inlet0[1] = (0 0 -1.156109e-05)
    Area magnitude of patch inlet0[1] = 1.156109e-05
    Reading surfaceScalarField phi
    Integral of phi over patch inlet0[1] = -1.940732e-05

Time = 1.86
    Area vector of patch inlet0[1] = (0 0 -1.156109e-05)
    Area magnitude of patch inlet0[1] = 1.156109e-05
    Reading surfaceScalarField phi
    Integral of phi over patch inlet0[1] = -1.9302215e-05

Time = 1.87
    Area vector of patch inlet0[1] = (0 0 -1.156109e-05)
    Area magnitude of patch inlet0[1] = 1.156109e-05
    Reading surfaceScalarField phi
    Integral of phi over patch inlet0[1] = -1.9403985e-05

Time = 1.88
    Area vector of patch inlet0[1] = (0 0 -1.156109e-05)
    Area magnitude of patch inlet0[1] = 1.156109e-05
    Reading surfaceScalarField phi
    Integral of phi over patch inlet0[1] = -1.9385879e-05

Time = 1.89
    Area vector of patch inlet0[1] = (0 0 -1.156109e-05)
    Area magnitude of patch inlet0[1] = 1.156109e-05
    Reading surfaceScalarField phi
    Integral of phi over patch inlet0[1] = -1.9380492e-05

Time = 1.9
    Area vector of patch inlet0[1] = (0 0 -1.156109e-05)
    Area magnitude of patch inlet0[1] = 1.156109e-05
    Reading surfaceScalarField phi
    Integral of phi over patch inlet0[1] = -1.9340416e-05

Time = 1.91
    Area vector of patch inlet0[1] = (0 0 -1.156109e-05)
    Area magnitude of patch inlet0[1] = 1.156109e-05
    Reading surfaceScalarField phi
    Integral of phi over patch inlet0[1] = -1.9323033e-05

Time = 1.92
    Area vector of patch inlet0[1] = (0 0 -1.156109e-05)
    Area magnitude of patch inlet0[1] = 1.156109e-05
    Reading surfaceScalarField phi
    Integral of phi over patch inlet0[1] = -1.9447918e-05

Time = 1.93
    Area vector of patch inlet0[1] = (0 0 -1.156109e-05)
    Area magnitude of patch inlet0[1] = 1.156109e-05
    Reading surfaceScalarField phi
    Integral of phi over patch inlet0[1] = -1.9505196e-05

Time = 1.94
    Area vector of patch inlet0[1] = (0 0 -1.156109e-05)
    Area magnitude of patch inlet0[1] = 1.156109e-05
    Reading surfaceScalarField phi
    Integral of phi over patch inlet0[1] = -1.9705972e-05

Time = 1.95
    Area vector of patch inlet0[1] = (0 0 -1.156109e-05)
    Area magnitude of patch inlet0[1] = 1.156109e-05
    Reading surfaceScalarField phi
    Integral of phi over patch inlet0[1] = -1.9471573e-05

Time = 1.96
    Area vector of patch inlet0[1] = (0 0 -1.156109e-05)
    Area magnitude of patch inlet0[1] = 1.156109e-05
    Reading surfaceScalarField phi
    Integral of phi over patch inlet0[1] = -1.9443573e-05

Time = 1.97
    Area vector of patch inlet0[1] = (0 0 -1.156109e-05)
    Area magnitude of patch inlet0[1] = 1.156109e-05
    Reading surfaceScalarField phi
    Integral of phi over patch inlet0[1] = -1.9573757e-05

Time = 1.98
    Area vector of patch inlet0[1] = (0 0 -1.156109e-05)
    Area magnitude of patch inlet0[1] = 1.156109e-05
    Reading surfaceScalarField phi
    Integral of phi over patch inlet0[1] = -1.9566332e-05

Time = 1.99
    Area vector of patch inlet0[1] = (0 0 -1.156109e-05)
    Area magnitude of patch inlet0[1] = 1.156109e-05
    Reading surfaceScalarField phi
    Integral of phi over patch inlet0[1] = -1.9598752e-05

Time = 2
    Area vector of patch inlet0[1] = (0 0 -1.156109e-05)
    Area magnitude of patch inlet0[1] = 1.156109e-05
    Reading surfaceScalarField phi
    Integral of phi over patch inlet0[1] = -1.9595559e-05

Time = 2.01
    Area vector of patch inlet0[1] = (0 0 -1.156109e-05)
    Area magnitude of patch inlet0[1] = 1.156109e-05
    Reading surfaceScalarField phi
    Integral of phi over patch inlet0[1] = -1.9663168e-05

Time = 2.02
    Area vector of patch inlet0[1] = (0 0 -1.156109e-05)
    Area magnitude of patch inlet0[1] = 1.156109e-05
    Reading surfaceScalarField phi
    Integral of phi over patch inlet0[1] = -1.9768783e-05

Time = 2.03
    Area vector of patch inlet0[1] = (0 0 -1.156109e-05)
    Area magnitude of patch inlet0[1] = 1.156109e-05
    Reading surfaceScalarField phi
    Integral of phi over patch inlet0[1] = -1.9735002e-05

Time = 2.04
    Area vector of patch inlet0[1] = (0 0 -1.156109e-05)
    Area magnitude of patch inlet0[1] = 1.156109e-05
    Reading surfaceScalarField phi
    Integral of phi over patch inlet0[1] = -1.9807779e-05

Time = 2.05
    Area vector of patch inlet0[1] = (0 0 -1.156109e-05)
    Area magnitude of patch inlet0[1] = 1.156109e-05
    Reading surfaceScalarField phi
    Integral of phi over patch inlet0[1] = -1.9779161e-05

Time = 2.06
    Area vector of patch inlet0[1] = (0 0 -1.156109e-05)
    Area magnitude of patch inlet0[1] = 1.156109e-05
    Reading surfaceScalarField phi
    Integral of phi over patch inlet0[1] = -1.9693917e-05

Time = 2.07
    Area vector of patch inlet0[1] = (0 0 -1.156109e-05)
    Area magnitude of patch inlet0[1] = 1.156109e-05
    Reading surfaceScalarField phi
    Integral of phi over patch inlet0[1] = -1.9716001e-05

Time = 2.08
    Area vector of patch inlet0[1] = (0 0 -1.156109e-05)
    Area magnitude of patch inlet0[1] = 1.156109e-05
    Reading surfaceScalarField phi
    Integral of phi over patch inlet0[1] = -1.976098e-05

Time = 2.09
    Area vector of patch inlet0[1] = (0 0 -1.156109e-05)
    Area magnitude of patch inlet0[1] = 1.156109e-05
    Reading surfaceScalarField phi
    Integral of phi over patch inlet0[1] = -1.9796677e-05

Time = 2.1
    Area vector of patch inlet0[1] = (0 0 -1.156109e-05)
    Area magnitude of patch inlet0[1] = 1.156109e-05
    Reading surfaceScalarField phi
    Integral of phi over patch inlet0[1] = -1.9617864e-05

Time = 2.11
    Area vector of patch inlet0[1] = (0 0 -1.156109e-05)
    Area magnitude of patch inlet0[1] = 1.156109e-05
    Reading surfaceScalarField phi
    Integral of phi over patch inlet0[1] = -1.985539e-05

Time = 2.12
    Area vector of patch inlet0[1] = (0 0 -1.156109e-05)
    Area magnitude of patch inlet0[1] = 1.156109e-05
    Reading surfaceScalarField phi
    Integral of phi over patch inlet0[1] = -1.9732966e-05

Time = 2.13
    Area vector of patch inlet0[1] = (0 0 -1.156109e-05)
    Area magnitude of patch inlet0[1] = 1.156109e-05
    Reading surfaceScalarField phi
    Integral of phi over patch inlet0[1] = -1.97491e-05

Time = 2.14
    Area vector of patch inlet0[1] = (0 0 -1.156109e-05)
    Area magnitude of patch inlet0[1] = 1.156109e-05
    Reading surfaceScalarField phi
    Integral of phi over patch inlet0[1] = -1.9843023e-05

Time = 2.15
    Area vector of patch inlet0[1] = (0 0 -1.156109e-05)
    Area magnitude of patch inlet0[1] = 1.156109e-05
    Reading surfaceScalarField phi
    Integral of phi over patch inlet0[1] = -1.9814002e-05

Time = 2.16
    Area vector of patch inlet0[1] = (0 0 -1.156109e-05)
    Area magnitude of patch inlet0[1] = 1.156109e-05
    Reading surfaceScalarField phi
    Integral of phi over patch inlet0[1] = -1.9874739e-05

Time = 2.17
    Area vector of patch inlet0[1] = (0 0 -1.156109e-05)
    Area magnitude of patch inlet0[1] = 1.156109e-05
    Reading surfaceScalarField phi
    Integral of phi over patch inlet0[1] = -2.0054468e-05

Time = 2.18
    Area vector of patch inlet0[1] = (0 0 -1.156109e-05)
    Area magnitude of patch inlet0[1] = 1.156109e-05
    Reading surfaceScalarField phi
    Integral of phi over patch inlet0[1] = -1.9758628e-05

Time = 2.19
    Area vector of patch inlet0[1] = (0 0 -1.156109e-05)
    Area magnitude of patch inlet0[1] = 1.156109e-05
    Reading surfaceScalarField phi
    Integral of phi over patch inlet0[1] = -1.9951129e-05

Time = 2.2
    Area vector of patch inlet0[1] = (0 0 -1.156109e-05)
    Area magnitude of patch inlet0[1] = 1.156109e-05
    Reading surfaceScalarField phi
    Integral of phi over patch inlet0[1] = -1.9787856e-05

Time = 2.21
    Area vector of patch inlet0[1] = (0 0 -1.156109e-05)
    Area magnitude of patch inlet0[1] = 1.156109e-05
    Reading surfaceScalarField phi
    Integral of phi over patch inlet0[1] = -1.9820209e-05

Time = 2.22
    Area vector of patch inlet0[1] = (0 0 -1.156109e-05)
    Area magnitude of patch inlet0[1] = 1.156109e-05
    Reading surfaceScalarField phi
    Integral of phi over patch inlet0[1] = -2.004209e-05

Time = 2.23
    Area vector of patch inlet0[1] = (0 0 -1.156109e-05)
    Area magnitude of patch inlet0[1] = 1.156109e-05
    Reading surfaceScalarField phi
    Integral of phi over patch inlet0[1] = -2.0044922e-05

Time = 2.24
    Area vector of patch inlet0[1] = (0 0 -1.156109e-05)
    Area magnitude of patch inlet0[1] = 1.156109e-05
    Reading surfaceScalarField phi
    Integral of phi over patch inlet0[1] = -1.992708e-05

Time = 2.25
    Area vector of patch inlet0[1] = (0 0 -1.156109e-05)
    Area magnitude of patch inlet0[1] = 1.156109e-05
    Reading surfaceScalarField phi
    Integral of phi over patch inlet0[1] = -1.9879268e-05

Time = 2.26
    Area vector of patch inlet0[1] = (0 0 -1.156109e-05)
    Area magnitude of patch inlet0[1] = 1.156109e-05
    Reading surfaceScalarField phi
    Integral of phi over patch inlet0[1] = -1.999275e-05

Time = 2.27
    Area vector of patch inlet0[1] = (0 0 -1.156109e-05)
    Area magnitude of patch inlet0[1] = 1.156109e-05
    Reading surfaceScalarField phi
    Integral of phi over patch inlet0[1] = -1.9786691e-05

Time = 2.28
    Area vector of patch inlet0[1] = (0 0 -1.156109e-05)
    Area magnitude of patch inlet0[1] = 1.156109e-05
    Reading surfaceScalarField phi
    Integral of phi over patch inlet0[1] = -2.0001298e-05

Time = 2.29
    Area vector of patch inlet0[1] = (0 0 -1.156109e-05)
    Area magnitude of patch inlet0[1] = 1.156109e-05
    Reading surfaceScalarField phi
    Integral of phi over patch inlet0[1] = -1.9936207e-05

Time = 2.3
    Area vector of patch inlet0[1] = (0 0 -1.156109e-05)
    Area magnitude of patch inlet0[1] = 1.156109e-05
    Reading surfaceScalarField phi
    Integral of phi over patch inlet0[1] = -2.0093677e-05

Time = 2.31
    Area vector of patch inlet0[1] = (0 0 -1.156109e-05)
    Area magnitude of patch inlet0[1] = 1.156109e-05
    Reading surfaceScalarField phi
    Integral of phi over patch inlet0[1] = -2.003451e-05

Time = 2.32
    Area vector of patch inlet0[1] = (0 0 -1.156109e-05)
    Area magnitude of patch inlet0[1] = 1.156109e-05
    Reading surfaceScalarField phi
    Integral of phi over patch inlet0[1] = -2.0024791e-05

Time = 2.33
    Area vector of patch inlet0[1] = (0 0 -1.156109e-05)
    Area magnitude of patch inlet0[1] = 1.156109e-05
    Reading surfaceScalarField phi
    Integral of phi over patch inlet0[1] = -2.0209156e-05

Time = 2.34
    Area vector of patch inlet0[1] = (0 0 -1.156109e-05)
    Area magnitude of patch inlet0[1] = 1.156109e-05
    Reading surfaceScalarField phi
    Integral of phi over patch inlet0[1] = -1.9991516e-05

Time = 2.35
    Area vector of patch inlet0[1] = (0 0 -1.156109e-05)
    Area magnitude of patch inlet0[1] = 1.156109e-05
    Reading surfaceScalarField phi
    Integral of phi over patch inlet0[1] = -2.0211267e-05

Time = 2.36
    Area vector of patch inlet0[1] = (0 0 -1.156109e-05)
    Area magnitude of patch inlet0[1] = 1.156109e-05
    Reading surfaceScalarField phi
    Integral of phi over patch inlet0[1] = -1.9913963e-05

Time = 2.37
    Area vector of patch inlet0[1] = (0 0 -1.156109e-05)
    Area magnitude of patch inlet0[1] = 1.156109e-05
    Reading surfaceScalarField phi
    Integral of phi over patch inlet0[1] = -2.0132682e-05

Time = 2.38
    Area vector of patch inlet0[1] = (0 0 -1.156109e-05)
    Area magnitude of patch inlet0[1] = 1.156109e-05
    Reading surfaceScalarField phi
    Integral of phi over patch inlet0[1] = -2.0115058e-05

Time = 2.39
    Area vector of patch inlet0[1] = (0 0 -1.156109e-05)
    Area magnitude of patch inlet0[1] = 1.156109e-05
    Reading surfaceScalarField phi
    Integral of phi over patch inlet0[1] = -2.0114067e-05

Time = 2.4
    Area vector of patch inlet0[1] = (0 0 -1.156109e-05)
    Area magnitude of patch inlet0[1] = 1.156109e-05
    Reading surfaceScalarField phi
    Integral of phi over patch inlet0[1] = -2.0087404e-05

Time = 2.41
    Area vector of patch inlet0[1] = (0 0 -1.156109e-05)
    Area magnitude of patch inlet0[1] = 1.156109e-05
    Reading surfaceScalarField phi
    Integral of phi over patch inlet0[1] = -2.0075481e-05

Time = 2.42
    Area vector of patch inlet0[1] = (0 0 -1.156109e-05)
    Area magnitude of patch inlet0[1] = 1.156109e-05
    Reading surfaceScalarField phi
    Integral of phi over patch inlet0[1] = -2.0011343e-05

Time = 2.43
    Area vector of patch inlet0[1] = (0 0 -1.156109e-05)
    Area magnitude of patch inlet0[1] = 1.156109e-05
    Reading surfaceScalarField phi
    Integral of phi over patch inlet0[1] = -1.9940823e-05

Time = 2.44
    Area vector of patch inlet0[1] = (0 0 -1.156109e-05)
    Area magnitude of patch inlet0[1] = 1.156109e-05
    Reading surfaceScalarField phi
    Integral of phi over patch inlet0[1] = -2.0093323e-05

Time = 2.45
    Area vector of patch inlet0[1] = (0 0 -1.156109e-05)
    Area magnitude of patch inlet0[1] = 1.156109e-05
    Reading surfaceScalarField phi
    Integral of phi over patch inlet0[1] = -1.9969235e-05

Time = 2.46
    Area vector of patch inlet0[1] = (0 0 -1.156109e-05)
    Area magnitude of patch inlet0[1] = 1.156109e-05
    Reading surfaceScalarField phi
    Integral of phi over patch inlet0[1] = -2.0281033e-05

Time = 2.47
    Area vector of patch inlet0[1] = (0 0 -1.156109e-05)
    Area magnitude of patch inlet0[1] = 1.156109e-05
    Reading surfaceScalarField phi
    Integral of phi over patch inlet0[1] = -2.022394e-05

Time = 2.48
    Area vector of patch inlet0[1] = (0 0 -1.156109e-05)
    Area magnitude of patch inlet0[1] = 1.156109e-05
    Reading surfaceScalarField phi
    Integral of phi over patch inlet0[1] = -2.0347312e-05

Time = 2.49
    Area vector of patch inlet0[1] = (0 0 -1.156109e-05)
    Area magnitude of patch inlet0[1] = 1.156109e-05
    Reading surfaceScalarField phi
    Integral of phi over patch inlet0[1] = -2.0319321e-05

Time = 2.5
    Area vector of patch inlet0[1] = (0 0 -1.156109e-05)
    Area magnitude of patch inlet0[1] = 1.156109e-05
    Reading surfaceScalarField phi
    Integral of phi over patch inlet0[1] = -2.0176135e-05

Time = 2.51
    Area vector of patch inlet0[1] = (0 0 -1.156109e-05)
    Area magnitude of patch inlet0[1] = 1.156109e-05
    Reading surfaceScalarField phi
    Integral of phi over patch inlet0[1] = -2.0000281e-05

Time = 2.52
    Area vector of patch inlet0[1] = (0 0 -1.156109e-05)
    Area magnitude of patch inlet0[1] = 1.156109e-05
    Reading surfaceScalarField phi
    Integral of phi over patch inlet0[1] = -2.0248091e-05

Time = 2.53
    Area vector of patch inlet0[1] = (0 0 -1.156109e-05)
    Area magnitude of patch inlet0[1] = 1.156109e-05
    Reading surfaceScalarField phi
    Integral of phi over patch inlet0[1] = -2.0103387e-05

Time = 2.54
    Area vector of patch inlet0[1] = (0 0 -1.156109e-05)
    Area magnitude of patch inlet0[1] = 1.156109e-05
    Reading surfaceScalarField phi
    Integral of phi over patch inlet0[1] = -2.032262e-05

Time = 2.55
    Area vector of patch inlet0[1] = (0 0 -1.156109e-05)
    Area magnitude of patch inlet0[1] = 1.156109e-05
    Reading surfaceScalarField phi
    Integral of phi over patch inlet0[1] = -2.0275244e-05

Time = 2.56
    Area vector of patch inlet0[1] = (0 0 -1.156109e-05)
    Area magnitude of patch inlet0[1] = 1.156109e-05
    Reading surfaceScalarField phi
    Integral of phi over patch inlet0[1] = -2.021741e-05

Time = 2.57
    Area vector of patch inlet0[1] = (0 0 -1.156109e-05)
    Area magnitude of patch inlet0[1] = 1.156109e-05
    Reading surfaceScalarField phi
    Integral of phi over patch inlet0[1] = -2.0330366e-05

Time = 2.58
    Area vector of patch inlet0[1] = (0 0 -1.156109e-05)
    Area magnitude of patch inlet0[1] = 1.156109e-05
    Reading surfaceScalarField phi
    Integral of phi over patch inlet0[1] = -2.0167929e-05

Time = 2.59
    Area vector of patch inlet0[1] = (0 0 -1.156109e-05)
    Area magnitude of patch inlet0[1] = 1.156109e-05
    Reading surfaceScalarField phi
    Integral of phi over patch inlet0[1] = -2.0408505e-05

Time = 2.6
    Area vector of patch inlet0[1] = (0 0 -1.156109e-05)
    Area magnitude of patch inlet0[1] = 1.156109e-05
    Reading surfaceScalarField phi
    Integral of phi over patch inlet0[1] = -2.0194125e-05

Time = 2.61
    Area vector of patch inlet0[1] = (0 0 -1.156109e-05)
    Area magnitude of patch inlet0[1] = 1.156109e-05
    Reading surfaceScalarField phi
    Integral of phi over patch inlet0[1] = -2.0247193e-05

Time = 2.62
    Area vector of patch inlet0[1] = (0 0 -1.156109e-05)
    Area magnitude of patch inlet0[1] = 1.156109e-05
    Reading surfaceScalarField phi
    Integral of phi over patch inlet0[1] = -2.0381475e-05

Time = 2.63
    Area vector of patch inlet0[1] = (0 0 -1.156109e-05)
    Area magnitude of patch inlet0[1] = 1.156109e-05
    Reading surfaceScalarField phi
    Integral of phi over patch inlet0[1] = -2.0291847e-05

Time = 2.64
    Area vector of patch inlet0[1] = (0 0 -1.156109e-05)
    Area magnitude of patch inlet0[1] = 1.156109e-05
    Reading surfaceScalarField phi
    Integral of phi over patch inlet0[1] = -2.0249628e-05

Time = 2.65
    Area vector of patch inlet0[1] = (0 0 -1.156109e-05)
    Area magnitude of patch inlet0[1] = 1.156109e-05
    Reading surfaceScalarField phi
    Integral of phi over patch inlet0[1] = -2.0243247e-05

Time = 2.66
    Area vector of patch inlet0[1] = (0 0 -1.156109e-05)
    Area magnitude of patch inlet0[1] = 1.156109e-05
    Reading surfaceScalarField phi
    Integral of phi over patch inlet0[1] = -2.0286269e-05

Time = 2.67
    Area vector of patch inlet0[1] = (0 0 -1.156109e-05)
    Area magnitude of patch inlet0[1] = 1.156109e-05
    Reading surfaceScalarField phi
    Integral of phi over patch inlet0[1] = -2.0284261e-05

Time = 2.68
    Area vector of patch inlet0[1] = (0 0 -1.156109e-05)
    Area magnitude of patch inlet0[1] = 1.156109e-05
    Reading surfaceScalarField phi
    Integral of phi over patch inlet0[1] = -2.0382966e-05

Time = 2.69
    Area vector of patch inlet0[1] = (0 0 -1.156109e-05)
    Area magnitude of patch inlet0[1] = 1.156109e-05
    Reading surfaceScalarField phi
    Integral of phi over patch inlet0[1] = -2.0349423e-05

Time = 2.7
    Area vector of patch inlet0[1] = (0 0 -1.156109e-05)
    Area magnitude of patch inlet0[1] = 1.156109e-05
    Reading surfaceScalarField phi
    Integral of phi over patch inlet0[1] = -2.0249107e-05

Time = 2.71
    Area vector of patch inlet0[1] = (0 0 -1.156109e-05)
    Area magnitude of patch inlet0[1] = 1.156109e-05
    Reading surfaceScalarField phi
    Integral of phi over patch inlet0[1] = -2.0493723e-05

Time = 2.72
    Area vector of patch inlet0[1] = (0 0 -1.156109e-05)
    Area magnitude of patch inlet0[1] = 1.156109e-05
    Reading surfaceScalarField phi
    Integral of phi over patch inlet0[1] = -2.0434394e-05

Time = 2.73
    Area vector of patch inlet0[1] = (0 0 -1.156109e-05)
    Area magnitude of patch inlet0[1] = 1.156109e-05
    Reading surfaceScalarField phi
    Integral of phi over patch inlet0[1] = -2.0596961e-05

Time = 2.74
    Area vector of patch inlet0[1] = (0 0 -1.156109e-05)
    Area magnitude of patch inlet0[1] = 1.156109e-05
    Reading surfaceScalarField phi
    Integral of phi over patch inlet0[1] = -2.0547002e-05

Time = 2.75
    Area vector of patch inlet0[1] = (0 0 -1.156109e-05)
    Area magnitude of patch inlet0[1] = 1.156109e-05
    Reading surfaceScalarField phi
    Integral of phi over patch inlet0[1] = -2.0574909e-05

Time = 2.76
    Area vector of patch inlet0[1] = (0 0 -1.156109e-05)
    Area magnitude of patch inlet0[1] = 1.156109e-05
    Reading surfaceScalarField phi
    Integral of phi over patch inlet0[1] = -2.0561171e-05

Time = 2.77
    Area vector of patch inlet0[1] = (0 0 -1.156109e-05)
    Area magnitude of patch inlet0[1] = 1.156109e-05
    Reading surfaceScalarField phi
    Integral of phi over patch inlet0[1] = -2.0573766e-05

Time = 2.78
    Area vector of patch inlet0[1] = (0 0 -1.156109e-05)
    Area magnitude of patch inlet0[1] = 1.156109e-05
    Reading surfaceScalarField phi
    Integral of phi over patch inlet0[1] = -2.0729416e-05

Time = 2.79
    Area vector of patch inlet0[1] = (0 0 -1.156109e-05)
    Area magnitude of patch inlet0[1] = 1.156109e-05
    Reading surfaceScalarField phi
    Integral of phi over patch inlet0[1] = -2.0366442e-05

Time = 2.8
    Area vector of patch inlet0[1] = (0 0 -1.156109e-05)
    Area magnitude of patch inlet0[1] = 1.156109e-05
    Reading surfaceScalarField phi
    Integral of phi over patch inlet0[1] = -2.0677351e-05

Time = 2.81
    Area vector of patch inlet0[1] = (0 0 -1.156109e-05)
    Area magnitude of patch inlet0[1] = 1.156109e-05
    Reading surfaceScalarField phi
    Integral of phi over patch inlet0[1] = -2.0418609e-05

Time = 2.82
    Area vector of patch inlet0[1] = (0 0 -1.156109e-05)
    Area magnitude of patch inlet0[1] = 1.156109e-05
    Reading surfaceScalarField phi
    Integral of phi over patch inlet0[1] = -2.0735026e-05

Time = 2.83
    Area vector of patch inlet0[1] = (0 0 -1.156109e-05)
    Area magnitude of patch inlet0[1] = 1.156109e-05
    Reading surfaceScalarField phi
    Integral of phi over patch inlet0[1] = -2.0528926e-05

Time = 2.84
    Area vector of patch inlet0[1] = (0 0 -1.156109e-05)
    Area magnitude of patch inlet0[1] = 1.156109e-05
    Reading surfaceScalarField phi
    Integral of phi over patch inlet0[1] = -2.054997e-05

Time = 2.85
    Area vector of patch inlet0[1] = (0 0 -1.156109e-05)
    Area magnitude of patch inlet0[1] = 1.156109e-05
    Reading surfaceScalarField phi
    Integral of phi over patch inlet0[1] = -2.060482e-05

Time = 2.86
    Area vector of patch inlet0[1] = (0 0 -1.156109e-05)
    Area magnitude of patch inlet0[1] = 1.156109e-05
    Reading surfaceScalarField phi
    Integral of phi over patch inlet0[1] = -2.0381431e-05

Time = 2.87
    Area vector of patch inlet0[1] = (0 0 -1.156109e-05)
    Area magnitude of patch inlet0[1] = 1.156109e-05
    Reading surfaceScalarField phi
    Integral of phi over patch inlet0[1] = -2.0584307e-05

Time = 2.88
    Area vector of patch inlet0[1] = (0 0 -1.156109e-05)
    Area magnitude of patch inlet0[1] = 1.156109e-05
    Reading surfaceScalarField phi
    Integral of phi over patch inlet0[1] = -2.052353e-05

Time = 2.89
    Area vector of patch inlet0[1] = (0 0 -1.156109e-05)
    Area magnitude of patch inlet0[1] = 1.156109e-05
    Reading surfaceScalarField phi
    Integral of phi over patch inlet0[1] = -2.0604179e-05

Time = 2.9
    Area vector of patch inlet0[1] = (0 0 -1.156109e-05)
    Area magnitude of patch inlet0[1] = 1.156109e-05
    Reading surfaceScalarField phi
    Integral of phi over patch inlet0[1] = -2.0465264e-05

Time = 2.91
    Area vector of patch inlet0[1] = (0 0 -1.156109e-05)
    Area magnitude of patch inlet0[1] = 1.156109e-05
    Reading surfaceScalarField phi
    Integral of phi over patch inlet0[1] = -2.0560953e-05

Time = 2.92
    Area vector of patch inlet0[1] = (0 0 -1.156109e-05)
    Area magnitude of patch inlet0[1] = 1.156109e-05
    Reading surfaceScalarField phi
    Integral of phi over patch inlet0[1] = -2.0491419e-05

Time = 2.93
    Area vector of patch inlet0[1] = (0 0 -1.156109e-05)
    Area magnitude of patch inlet0[1] = 1.156109e-05
    Reading surfaceScalarField phi
    Integral of phi over patch inlet0[1] = -2.0554706e-05

Time = 2.94
    Area vector of patch inlet0[1] = (0 0 -1.156109e-05)
    Area magnitude of patch inlet0[1] = 1.156109e-05
    Reading surfaceScalarField phi
    Integral of phi over patch inlet0[1] = -2.0547089e-05

Time = 2.95
    Area vector of patch inlet0[1] = (0 0 -1.156109e-05)
    Area magnitude of patch inlet0[1] = 1.156109e-05
    Reading surfaceScalarField phi
    Integral of phi over patch inlet0[1] = -2.0344323e-05

Time = 2.96
    Area vector of patch inlet0[1] = (0 0 -1.156109e-05)
    Area magnitude of patch inlet0[1] = 1.156109e-05
    Reading surfaceScalarField phi
    Integral of phi over patch inlet0[1] = -2.0658092e-05

Time = 2.97
    Area vector of patch inlet0[1] = (0 0 -1.156109e-05)
    Area magnitude of patch inlet0[1] = 1.156109e-05
    Reading surfaceScalarField phi
    Integral of phi over patch inlet0[1] = -2.0317831e-05

Time = 2.98
    Area vector of patch inlet0[1] = (0 0 -1.156109e-05)
    Area magnitude of patch inlet0[1] = 1.156109e-05
    Reading surfaceScalarField phi
    Integral of phi over patch inlet0[1] = -2.0409016e-05

Time = 2.99
    Area vector of patch inlet0[1] = (0 0 -1.156109e-05)
    Area magnitude of patch inlet0[1] = 1.156109e-05
    Reading surfaceScalarField phi
    Integral of phi over patch inlet0[1] = -2.036308e-05

Time = 3
    Area vector of patch inlet0[1] = (0 0 -1.156109e-05)
    Area magnitude of patch inlet0[1] = 1.156109e-05
    Reading surfaceScalarField phi
    Integral of phi over patch inlet0[1] = -2.029285e-05

Time = 3.01
    Area vector of patch inlet0[1] = (0 0 -1.156109e-05)
    Area magnitude of patch inlet0[1] = 1.156109e-05
    Reading surfaceScalarField phi
    Integral of phi over patch inlet0[1] = -2.0448126e-05

Time = 3.02
    Area vector of patch inlet0[1] = (0 0 -1.156109e-05)
    Area magnitude of patch inlet0[1] = 1.156109e-05
    Reading surfaceScalarField phi
    Integral of phi over patch inlet0[1] = -2.0622699e-05

Time = 3.03
    Area vector of patch inlet0[1] = (0 0 -1.156109e-05)
    Area magnitude of patch inlet0[1] = 1.156109e-05
    Reading surfaceScalarField phi
    Integral of phi over patch inlet0[1] = -2.0534087e-05

Time = 3.04
    Area vector of patch inlet0[1] = (0 0 -1.156109e-05)
    Area magnitude of patch inlet0[1] = 1.156109e-05
    Reading surfaceScalarField phi
    Integral of phi over patch inlet0[1] = -2.0617904e-05

Time = 3.05
    Area vector of patch inlet0[1] = (0 0 -1.156109e-05)
    Area magnitude of patch inlet0[1] = 1.156109e-05
    Reading surfaceScalarField phi
    Integral of phi over patch inlet0[1] = -2.0371387e-05

Time = 3.06
    Area vector of patch inlet0[1] = (0 0 -1.156109e-05)
    Area magnitude of patch inlet0[1] = 1.156109e-05
    Reading surfaceScalarField phi
    Integral of phi over patch inlet0[1] = -2.0556412e-05

Time = 3.07
    Area vector of patch inlet0[1] = (0 0 -1.156109e-05)
    Area magnitude of patch inlet0[1] = 1.156109e-05
    Reading surfaceScalarField phi
    Integral of phi over patch inlet0[1] = -2.0467377e-05

Time = 3.08
    Area vector of patch inlet0[1] = (0 0 -1.156109e-05)
    Area magnitude of patch inlet0[1] = 1.156109e-05
    Reading surfaceScalarField phi
    Integral of phi over patch inlet0[1] = -2.0619518e-05

Time = 3.09
    Area vector of patch inlet0[1] = (0 0 -1.156109e-05)
    Area magnitude of patch inlet0[1] = 1.156109e-05
    Reading surfaceScalarField phi
    Integral of phi over patch inlet0[1] = -2.0559369e-05

Time = 3.1
    Area vector of patch inlet0[1] = (0 0 -1.156109e-05)
    Area magnitude of patch inlet0[1] = 1.156109e-05
    Reading surfaceScalarField phi
    Integral of phi over patch inlet0[1] = -2.0574799e-05

Time = 3.11
    Area vector of patch inlet0[1] = (0 0 -1.156109e-05)
    Area magnitude of patch inlet0[1] = 1.156109e-05
    Reading surfaceScalarField phi
    Integral of phi over patch inlet0[1] = -2.0763577e-05

Time = 3.12
    Area vector of patch inlet0[1] = (0 0 -1.156109e-05)
    Area magnitude of patch inlet0[1] = 1.156109e-05
    Reading surfaceScalarField phi
    Integral of phi over patch inlet0[1] = -2.0321569e-05

Time = 3.13
    Area vector of patch inlet0[1] = (0 0 -1.156109e-05)
    Area magnitude of patch inlet0[1] = 1.156109e-05
    Reading surfaceScalarField phi
    Integral of phi over patch inlet0[1] = -2.0700141e-05

Time = 3.14
    Area vector of patch inlet0[1] = (0 0 -1.156109e-05)
    Area magnitude of patch inlet0[1] = 1.156109e-05
    Reading surfaceScalarField phi
    Integral of phi over patch inlet0[1] = -2.0476782e-05

Time = 3.15
    Area vector of patch inlet0[1] = (0 0 -1.156109e-05)
    Area magnitude of patch inlet0[1] = 1.156109e-05
    Reading surfaceScalarField phi
    Integral of phi over patch inlet0[1] = -2.0833514e-05

Time = 3.16
    Area vector of patch inlet0[1] = (0 0 -1.156109e-05)
    Area magnitude of patch inlet0[1] = 1.156109e-05
    Reading surfaceScalarField phi
    Integral of phi over patch inlet0[1] = -2.0612599e-05

Time = 3.17
    Area vector of patch inlet0[1] = (0 0 -1.156109e-05)
    Area magnitude of patch inlet0[1] = 1.156109e-05
    Reading surfaceScalarField phi
    Integral of phi over patch inlet0[1] = -2.0834726e-05

Time = 3.18
    Area vector of patch inlet0[1] = (0 0 -1.156109e-05)
    Area magnitude of patch inlet0[1] = 1.156109e-05
    Reading surfaceScalarField phi
    Integral of phi over patch inlet0[1] = -2.0743949e-05

Time = 3.19
    Area vector of patch inlet0[1] = (0 0 -1.156109e-05)
    Area magnitude of patch inlet0[1] = 1.156109e-05
    Reading surfaceScalarField phi
    Integral of phi over patch inlet0[1] = -2.0816e-05

Time = 3.2
    Area vector of patch inlet0[1] = (0 0 -1.156109e-05)
    Area magnitude of patch inlet0[1] = 1.156109e-05
    Reading surfaceScalarField phi
    Integral of phi over patch inlet0[1] = -2.0636116e-05

Time = 3.21
    Area vector of patch inlet0[1] = (0 0 -1.156109e-05)
    Area magnitude of patch inlet0[1] = 1.156109e-05
    Reading surfaceScalarField phi
    Integral of phi over patch inlet0[1] = -2.056287e-05

Time = 3.22
    Area vector of patch inlet0[1] = (0 0 -1.156109e-05)
    Area magnitude of patch inlet0[1] = 1.156109e-05
    Reading surfaceScalarField phi
    Integral of phi over patch inlet0[1] = -2.0597259e-05

Time = 3.23
    Area vector of patch inlet0[1] = (0 0 -1.156109e-05)
    Area magnitude of patch inlet0[1] = 1.156109e-05
    Reading surfaceScalarField phi
    Integral of phi over patch inlet0[1] = -2.0593117e-05

Time = 3.24
    Area vector of patch inlet0[1] = (0 0 -1.156109e-05)
    Area magnitude of patch inlet0[1] = 1.156109e-05
    Reading surfaceScalarField phi
    Integral of phi over patch inlet0[1] = -2.0700722e-05

Time = 3.25
    Area vector of patch inlet0[1] = (0 0 -1.156109e-05)
    Area magnitude of patch inlet0[1] = 1.156109e-05
    Reading surfaceScalarField phi
    Integral of phi over patch inlet0[1] = -2.0579592e-05

Time = 3.26
    Area vector of patch inlet0[1] = (0 0 -1.156109e-05)
    Area magnitude of patch inlet0[1] = 1.156109e-05
    Reading surfaceScalarField phi
    Integral of phi over patch inlet0[1] = -2.0796063e-05

Time = 3.27
    Area vector of patch inlet0[1] = (0 0 -1.156109e-05)
    Area magnitude of patch inlet0[1] = 1.156109e-05
    Reading surfaceScalarField phi
    Integral of phi over patch inlet0[1] = -2.0744826e-05

Time = 3.28
    Area vector of patch inlet0[1] = (0 0 -1.156109e-05)
    Area magnitude of patch inlet0[1] = 1.156109e-05
    Reading surfaceScalarField phi
    Integral of phi over patch inlet0[1] = -2.0770862e-05

Time = 3.29
    Area vector of patch inlet0[1] = (0 0 -1.156109e-05)
    Area magnitude of patch inlet0[1] = 1.156109e-05
    Reading surfaceScalarField phi
    Integral of phi over patch inlet0[1] = -2.0692776e-05

Time = 3.3
    Area vector of patch inlet0[1] = (0 0 -1.156109e-05)
    Area magnitude of patch inlet0[1] = 1.156109e-05
    Reading surfaceScalarField phi
    Integral of phi over patch inlet0[1] = -2.0660261e-05

Time = 3.31
    Area vector of patch inlet0[1] = (0 0 -1.156109e-05)
    Area magnitude of patch inlet0[1] = 1.156109e-05
    Reading surfaceScalarField phi
    Integral of phi over patch inlet0[1] = -2.0712931e-05

Time = 3.32
    Area vector of patch inlet0[1] = (0 0 -1.156109e-05)
    Area magnitude of patch inlet0[1] = 1.156109e-05
    Reading surfaceScalarField phi
    Integral of phi over patch inlet0[1] = -2.0620087e-05

Time = 3.33
    Area vector of patch inlet0[1] = (0 0 -1.156109e-05)
    Area magnitude of patch inlet0[1] = 1.156109e-05
    Reading surfaceScalarField phi
    Integral of phi over patch inlet0[1] = -2.0685156e-05

Time = 3.34
    Area vector of patch inlet0[1] = (0 0 -1.156109e-05)
    Area magnitude of patch inlet0[1] = 1.156109e-05
    Reading surfaceScalarField phi
    Integral of phi over patch inlet0[1] = -2.0577338e-05

Time = 3.35
    Area vector of patch inlet0[1] = (0 0 -1.156109e-05)
    Area magnitude of patch inlet0[1] = 1.156109e-05
    Reading surfaceScalarField phi
    Integral of phi over patch inlet0[1] = -2.0763583e-05

Time = 3.36
    Area vector of patch inlet0[1] = (0 0 -1.156109e-05)
    Area magnitude of patch inlet0[1] = 1.156109e-05
    Reading surfaceScalarField phi
    Integral of phi over patch inlet0[1] = -2.0617535e-05

Time = 3.37
    Area vector of patch inlet0[1] = (0 0 -1.156109e-05)
    Area magnitude of patch inlet0[1] = 1.156109e-05
    Reading surfaceScalarField phi
    Integral of phi over patch inlet0[1] = -2.0630203e-05

Time = 3.38
    Area vector of patch inlet0[1] = (0 0 -1.156109e-05)
    Area magnitude of patch inlet0[1] = 1.156109e-05
    Reading surfaceScalarField phi
    Integral of phi over patch inlet0[1] = -2.059025e-05

Time = 3.39
    Area vector of patch inlet0[1] = (0 0 -1.156109e-05)
    Area magnitude of patch inlet0[1] = 1.156109e-05
    Reading surfaceScalarField phi
    Integral of phi over patch inlet0[1] = -2.0606181e-05

Time = 3.4
    Area vector of patch inlet0[1] = (0 0 -1.156109e-05)
    Area magnitude of patch inlet0[1] = 1.156109e-05
    Reading surfaceScalarField phi
    Integral of phi over patch inlet0[1] = -2.079506e-05

Time = 3.41
    Area vector of patch inlet0[1] = (0 0 -1.156109e-05)
    Area magnitude of patch inlet0[1] = 1.156109e-05
    Reading surfaceScalarField phi
    Integral of phi over patch inlet0[1] = -2.0589003e-05

Time = 3.42
    Area vector of patch inlet0[1] = (0 0 -1.156109e-05)
    Area magnitude of patch inlet0[1] = 1.156109e-05
    Reading surfaceScalarField phi
    Integral of phi over patch inlet0[1] = -2.0787004e-05

Time = 3.43
    Area vector of patch inlet0[1] = (0 0 -1.156109e-05)
    Area magnitude of patch inlet0[1] = 1.156109e-05
    Reading surfaceScalarField phi
    Integral of phi over patch inlet0[1] = -2.0584224e-05

Time = 3.44
    Area vector of patch inlet0[1] = (0 0 -1.156109e-05)
    Area magnitude of patch inlet0[1] = 1.156109e-05
    Reading surfaceScalarField phi
    Integral of phi over patch inlet0[1] = -2.0562606e-05

Time = 3.45
    Area vector of patch inlet0[1] = (0 0 -1.156109e-05)
    Area magnitude of patch inlet0[1] = 1.156109e-05
    Reading surfaceScalarField phi
    Integral of phi over patch inlet0[1] = -2.0619872e-05

Time = 3.46
    Area vector of patch inlet0[1] = (0 0 -1.156109e-05)
    Area magnitude of patch inlet0[1] = 1.156109e-05
    Reading surfaceScalarField phi
    Integral of phi over patch inlet0[1] = -2.05134e-05

Time = 3.47
    Area vector of patch inlet0[1] = (0 0 -1.156109e-05)
    Area magnitude of patch inlet0[1] = 1.156109e-05
    Reading surfaceScalarField phi
    Integral of phi over patch inlet0[1] = -2.0653083e-05

Time = 3.48
    Area vector of patch inlet0[1] = (0 0 -1.156109e-05)
    Area magnitude of patch inlet0[1] = 1.156109e-05
    Reading surfaceScalarField phi
    Integral of phi over patch inlet0[1] = -2.0558057e-05

Time = 3.49
    Area vector of patch inlet0[1] = (0 0 -1.156109e-05)
    Area magnitude of patch inlet0[1] = 1.156109e-05
    Reading surfaceScalarField phi
    Integral of phi over patch inlet0[1] = -2.0646922e-05

Time = 3.5
    Area vector of patch inlet0[1] = (0 0 -1.156109e-05)
    Area magnitude of patch inlet0[1] = 1.156109e-05
    Reading surfaceScalarField phi
    Integral of phi over patch inlet0[1] = -2.0510383e-05

Time = 3.51
    Area vector of patch inlet0[1] = (0 0 -1.156109e-05)
    Area magnitude of patch inlet0[1] = 1.156109e-05
    Reading surfaceScalarField phi
    Integral of phi over patch inlet0[1] = -2.026242e-05

Time = 3.52
    Area vector of patch inlet0[1] = (0 0 -1.156109e-05)
    Area magnitude of patch inlet0[1] = 1.156109e-05
    Reading surfaceScalarField phi
    Integral of phi over patch inlet0[1] = -1.965296e-05

Time = 3.53
    Area vector of patch inlet0[1] = (0 0 -1.156109e-05)
    Area magnitude of patch inlet0[1] = 1.156109e-05
    Reading surfaceScalarField phi
    Integral of phi over patch inlet0[1] = -1.9322586e-05

Time = 3.54
    Area vector of patch inlet0[1] = (0 0 -1.156109e-05)
    Area magnitude of patch inlet0[1] = 1.156109e-05
    Reading surfaceScalarField phi
    Integral of phi over patch inlet0[1] = -1.9221453e-05

Time = 3.55
    Area vector of patch inlet0[1] = (0 0 -1.156109e-05)
    Area magnitude of patch inlet0[1] = 1.156109e-05
    Reading surfaceScalarField phi
    Integral of phi over patch inlet0[1] = -1.9113268e-05

Time = 3.56
    Area vector of patch inlet0[1] = (0 0 -1.156109e-05)
    Area magnitude of patch inlet0[1] = 1.156109e-05
    Reading surfaceScalarField phi
    Integral of phi over patch inlet0[1] = -1.8883766e-05

Time = 3.57
    Area vector of patch inlet0[1] = (0 0 -1.156109e-05)
    Area magnitude of patch inlet0[1] = 1.156109e-05
    Reading surfaceScalarField phi
    Integral of phi over patch inlet0[1] = -1.8891952e-05

Time = 3.58
    Area vector of patch inlet0[1] = (0 0 -1.156109e-05)
    Area magnitude of patch inlet0[1] = 1.156109e-05
    Reading surfaceScalarField phi
    Integral of phi over patch inlet0[1] = -1.8546235e-05

Time = 3.59
    Area vector of patch inlet0[1] = (0 0 -1.156109e-05)
    Area magnitude of patch inlet0[1] = 1.156109e-05
[...]
    Area magnitude of patch inlet0[1] = 1.156109e-05
    Reading surfaceScalarField phi
    Integral of phi over patch inlet0[1] = -8.4739512e-06

Time = 6.09
    Area vector of patch inlet0[1] = (0 0 -1.156109e-05)
    Area magnitude of patch inlet0[1] = 1.156109e-05
    Reading surfaceScalarField phi
    Integral of phi over patch inlet0[1] = -8.4384571e-06

Time = 6.1
    Area vector of patch inlet0[1] = (0 0 -1.156109e-05)
    Area magnitude of patch inlet0[1] = 1.156109e-05
    Reading surfaceScalarField phi
    Integral of phi over patch inlet0[1] = -8.5533569e-06

Time = 6.11
    Area vector of patch inlet0[1] = (0 0 -1.156109e-05)
    Area magnitude of patch inlet0[1] = 1.156109e-05
    Reading surfaceScalarField phi
    Integral of phi over patch inlet0[1] = -8.7211089e-06

Time = 6.12
    Area vector of patch inlet0[1] = (0 0 -1.156109e-05)
    Area magnitude of patch inlet0[1] = 1.156109e-05
    Reading surfaceScalarField phi
    Integral of phi over patch inlet0[1] = -8.8899178e-06

Time = 6.13
    Area vector of patch inlet0[1] = (0 0 -1.156109e-05)
    Area magnitude of patch inlet0[1] = 1.156109e-05
    Reading surfaceScalarField phi
    Integral of phi over patch inlet0[1] = -8.9807388e-06

Time = 6.14
    Area vector of patch inlet0[1] = (0 0 -1.156109e-05)
    Area magnitude of patch inlet0[1] = 1.156109e-05
    Reading surfaceScalarField phi
    Integral of phi over patch inlet0[1] = -8.592247e-06

Time = 6.15
    Area vector of patch inlet0[1] = (0 0 -1.156109e-05)
    Area magnitude of patch inlet0[1] = 1.156109e-05
    Reading surfaceScalarField phi
    Integral of phi over patch inlet0[1] = -8.6231309e-06

Time = 6.16
    Area vector of patch inlet0[1] = (0 0 -1.156109e-05)
    Area magnitude of patch inlet0[1] = 1.156109e-05
    Reading surfaceScalarField phi
    Integral of phi over patch inlet0[1] = -8.7787289e-06

Time = 6.17
    Area vector of patch inlet0[1] = (0 0 -1.156109e-05)
    Area magnitude of patch inlet0[1] = 1.156109e-05
    Reading surfaceScalarField phi
    Integral of phi over patch inlet0[1] = -8.5835675e-06

Time = 6.18
    Area vector of patch inlet0[1] = (0 0 -1.156109e-05)
    Area magnitude of patch inlet0[1] = 1.156109e-05
    Reading surfaceScalarField phi
    Integral of phi over patch inlet0[1] = -8.6790591e-06

Time = 6.19
    Area vector of patch inlet0[1] = (0 0 -1.156109e-05)
    Area magnitude of patch inlet0[1] = 1.156109e-05
    Reading surfaceScalarField phi
    Integral of phi over patch inlet0[1] = -8.9932838e-06

Time = 6.2
    Area vector of patch inlet0[1] = (0 0 -1.156109e-05)
    Area magnitude of patch inlet0[1] = 1.156109e-05
    Reading surfaceScalarField phi
    Integral of phi over patch inlet0[1] = -9.2698105e-06

Time = 6.21
    Area vector of patch inlet0[1] = (0 0 -1.156109e-05)
    Area magnitude of patch inlet0[1] = 1.156109e-05
    Reading surfaceScalarField phi
    Integral of phi over patch inlet0[1] = -9.169153e-06

Time = 6.22
    Area vector of patch inlet0[1] = (0 0 -1.156109e-05)
    Area magnitude of patch inlet0[1] = 1.156109e-05
    Reading surfaceScalarField phi
    Integral of phi over patch inlet0[1] = -8.7645205e-06

Time = 6.23
    Area vector of patch inlet0[1] = (0 0 -1.156109e-05)
    Area magnitude of patch inlet0[1] = 1.156109e-05
    Reading surfaceScalarField phi
    Integral of phi over patch inlet0[1] = -8.9807949e-06

Time = 6.24
    Area vector of patch inlet0[1] = (0 0 -1.156109e-05)
    Area magnitude of patch inlet0[1] = 1.156109e-05
    Reading surfaceScalarField phi
    Integral of phi over patch inlet0[1] = -9.2063726e-06

Time = 6.25
    Area vector of patch inlet0[1] = (0 0 -1.156109e-05)
    Area magnitude of patch inlet0[1] = 1.156109e-05
    Reading surfaceScalarField phi
    Integral of phi over patch inlet0[1] = -9.2160858e-06

Time = 6.26
    Area vector of patch inlet0[1] = (0 0 -1.156109e-05)
    Area magnitude of patch inlet0[1] = 1.156109e-05
    Reading surfaceScalarField phi
    Integral of phi over patch inlet0[1] = -9.237688e-06

Time = 6.27
    Area vector of patch inlet0[1] = (0 0 -1.156109e-05)
    Area magnitude of patch inlet0[1] = 1.156109e-05
    Reading surfaceScalarField phi
    Integral of phi over patch inlet0[1] = -8.7407459e-06

Time = 6.28
    Area vector of patch inlet0[1] = (0 0 -1.156109e-05)
    Area magnitude of patch inlet0[1] = 1.156109e-05
    Reading surfaceScalarField phi
    Integral of phi over patch inlet0[1] = -8.9655606e-06

Time = 6.29
    Area vector of patch inlet0[1] = (0 0 -1.156109e-05)
    Area magnitude of patch inlet0[1] = 1.156109e-05
    Reading surfaceScalarField phi
    Integral of phi over patch inlet0[1] = -8.8962529e-06

Time = 6.3
    Area vector of patch inlet0[1] = (0 0 -1.156109e-05)
    Area magnitude of patch inlet0[1] = 1.156109e-05
    Reading surfaceScalarField phi
    Integral of phi over patch inlet0[1] = -9.2045296e-06

Time = 6.31
    Area vector of patch inlet0[1] = (0 0 -1.156109e-05)
    Area magnitude of patch inlet0[1] = 1.156109e-05
    Reading surfaceScalarField phi
    Integral of phi over patch inlet0[1] = -9.2169924e-06

Time = 6.32
    Area vector of patch inlet0[1] = (0 0 -1.156109e-05)
    Area magnitude of patch inlet0[1] = 1.156109e-05
    Reading surfaceScalarField phi
    Integral of phi over patch inlet0[1] = -8.9269339e-06

Time = 6.33
    Area vector of patch inlet0[1] = (0 0 -1.156109e-05)
    Area magnitude of patch inlet0[1] = 1.156109e-05
    Reading surfaceScalarField phi
    Integral of phi over patch inlet0[1] = -8.8160344e-06

Time = 6.34
    Area vector of patch inlet0[1] = (0 0 -1.156109e-05)
    Area magnitude of patch inlet0[1] = 1.156109e-05
    Reading surfaceScalarField phi
    Integral of phi over patch inlet0[1] = -8.784496e-06

Time = 6.35
    Area vector of patch inlet0[1] = (0 0 -1.156109e-05)
    Area magnitude of patch inlet0[1] = 1.156109e-05
    Reading surfaceScalarField phi
    Integral of phi over patch inlet0[1] = -8.9938998e-06

Time = 6.36
    Area vector of patch inlet0[1] = (0 0 -1.156109e-05)
    Area magnitude of patch inlet0[1] = 1.156109e-05
    Reading surfaceScalarField phi
    Integral of phi over patch inlet0[1] = -9.0267366e-06

Time = 6.37
    Area vector of patch inlet0[1] = (0 0 -1.156109e-05)
    Area magnitude of patch inlet0[1] = 1.156109e-05
    Reading surfaceScalarField phi
    Integral of phi over patch inlet0[1] = -8.924915e-06

Time = 6.38
    Area vector of patch inlet0[1] = (0 0 -1.156109e-05)
    Area magnitude of patch inlet0[1] = 1.156109e-05
    Reading surfaceScalarField phi
    Integral of phi over patch inlet0[1] = -8.4727205e-06

Time = 6.39
    Area vector of patch inlet0[1] = (0 0 -1.156109e-05)
    Area magnitude of patch inlet0[1] = 1.156109e-05
    Reading surfaceScalarField phi
    Integral of phi over patch inlet0[1] = -8.6310108e-06

Time = 6.4
    Area vector of patch inlet0[1] = (0 0 -1.156109e-05)
    Area magnitude of patch inlet0[1] = 1.156109e-05
    Reading surfaceScalarField phi
    Integral of phi over patch inlet0[1] = -8.9207808e-06

Time = 6.41
    Area vector of patch inlet0[1] = (0 0 -1.156109e-05)
    Area magnitude of patch inlet0[1] = 1.156109e-05
    Reading surfaceScalarField phi
    Integral of phi over patch inlet0[1] = -8.4365652e-06

Time = 6.42
    Area vector of patch inlet0[1] = (0 0 -1.156109e-05)
    Area magnitude of patch inlet0[1] = 1.156109e-05
    Reading surfaceScalarField phi
    Integral of phi over patch inlet0[1] = -9.0775222e-06

Time = 6.43
    Area vector of patch inlet0[1] = (0 0 -1.156109e-05)
    Area magnitude of patch inlet0[1] = 1.156109e-05
    Reading surfaceScalarField phi
    Integral of phi over patch inlet0[1] = -8.926111e-06

Time = 6.44
    Area vector of patch inlet0[1] = (0 0 -1.156109e-05)
    Area magnitude of patch inlet0[1] = 1.156109e-05
    Reading surfaceScalarField phi
    Integral of phi over patch inlet0[1] = -8.7967915e-06

Time = 6.45
    Area vector of patch inlet0[1] = (0 0 -1.156109e-05)
    Area magnitude of patch inlet0[1] = 1.156109e-05
    Reading surfaceScalarField phi
    Integral of phi over patch inlet0[1] = -8.6857844e-06

Time = 6.46
    Area vector of patch inlet0[1] = (0 0 -1.156109e-05)
    Area magnitude of patch inlet0[1] = 1.156109e-05
    Reading surfaceScalarField phi
    Integral of phi over patch inlet0[1] = -8.5813675e-06

Time = 6.47
    Area vector of patch inlet0[1] = (0 0 -1.156109e-05)
    Area magnitude of patch inlet0[1] = 1.156109e-05
    Reading surfaceScalarField phi
    Integral of phi over patch inlet0[1] = -8.4265498e-06

Time = 6.48
    Area vector of patch inlet0[1] = (0 0 -1.156109e-05)
    Area magnitude of patch inlet0[1] = 1.156109e-05
    Reading surfaceScalarField phi
    Integral of phi over patch inlet0[1] = -9.0012027e-06

Time = 6.49
    Area vector of patch inlet0[1] = (0 0 -1.156109e-05)
    Area magnitude of patch inlet0[1] = 1.156109e-05
    Reading surfaceScalarField phi
    Integral of phi over patch inlet0[1] = -8.9354849e-06

Time = 6.5
    Area vector of patch inlet0[1] = (0 0 -1.156109e-05)
    Area magnitude of patch inlet0[1] = 1.156109e-05
    Reading surfaceScalarField phi
    Integral of phi over patch inlet0[1] = -8.5755328e-06

Time = 6.51
    Area vector of patch inlet0[1] = (0 0 -1.156109e-05)
    Area magnitude of patch inlet0[1] = 1.156109e-05
    Reading surfaceScalarField phi
    Integral of phi over patch inlet0[1] = -8.5964936e-06

Time = 6.52
    Area vector of patch inlet0[1] = (0 0 -1.156109e-05)
    Area magnitude of patch inlet0[1] = 1.156109e-05
    Reading surfaceScalarField phi
    Integral of phi over patch inlet0[1] = -8.7392636e-06

Time = 6.53
    Area vector of patch inlet0[1] = (0 0 -1.156109e-05)
    Area magnitude of patch inlet0[1] = 1.156109e-05
    Reading surfaceScalarField phi
    Integral of phi over patch inlet0[1] = -9.1253274e-06

Time = 6.54
    Area vector of patch inlet0[1] = (0 0 -1.156109e-05)
    Area magnitude of patch inlet0[1] = 1.156109e-05
    Reading surfaceScalarField phi
    Integral of phi over patch inlet0[1] = -8.854399e-06

Time = 6.55
    Area vector of patch inlet0[1] = (0 0 -1.156109e-05)
    Area magnitude of patch inlet0[1] = 1.156109e-05
    Reading surfaceScalarField phi
    Integral of phi over patch inlet0[1] = -8.7531925e-06

Time = 6.56
    Area vector of patch inlet0[1] = (0 0 -1.156109e-05)
    Area magnitude of patch inlet0[1] = 1.156109e-05
    Reading surfaceScalarField phi
    Integral of phi over patch inlet0[1] = -8.7639075e-06

Time = 6.57
    Area vector of patch inlet0[1] = (0 0 -1.156109e-05)
    Area magnitude of patch inlet0[1] = 1.156109e-05
    Reading surfaceScalarField phi
    Integral of phi over patch inlet0[1] = -9.246097e-06

Time = 6.58
    Area vector of patch inlet0[1] = (0 0 -1.156109e-05)
    Area magnitude of patch inlet0[1] = 1.156109e-05
    Reading surfaceScalarField phi
    Integral of phi over patch inlet0[1] = -9.2759513e-06

Time = 6.59
    Area vector of patch inlet0[1] = (0 0 -1.156109e-05)
    Area magnitude of patch inlet0[1] = 1.156109e-05
    Reading surfaceScalarField phi
    Integral of phi over patch inlet0[1] = -8.6722055e-06

Time = 6.6
    Area vector of patch inlet0[1] = (0 0 -1.156109e-05)
    Area magnitude of patch inlet0[1] = 1.156109e-05
    Reading surfaceScalarField phi
    Integral of phi over patch inlet0[1] = -8.5208529e-06

Time = 6.61
    Area vector of patch inlet0[1] = (0 0 -1.156109e-05)
    Area magnitude of patch inlet0[1] = 1.156109e-05
    Reading surfaceScalarField phi
    Integral of phi over patch inlet0[1] = -8.7909735e-06

Time = 6.62
    Area vector of patch inlet0[1] = (0 0 -1.156109e-05)
    Area magnitude of patch inlet0[1] = 1.156109e-05
    Reading surfaceScalarField phi
    Integral of phi over patch inlet0[1] = -9.6078614e-06

Time = 6.63
    Area vector of patch inlet0[1] = (0 0 -1.156109e-05)
    Area magnitude of patch inlet0[1] = 1.156109e-05
    Reading surfaceScalarField phi
    Integral of phi over patch inlet0[1] = -9.0517167e-06

Time = 6.64
    Area vector of patch inlet0[1] = (0 0 -1.156109e-05)
    Area magnitude of patch inlet0[1] = 1.156109e-05
    Reading surfaceScalarField phi
    Integral of phi over patch inlet0[1] = -8.9378392e-06

Time = 6.65
    Area vector of patch inlet0[1] = (0 0 -1.156109e-05)
    Area magnitude of patch inlet0[1] = 1.156109e-05
    Reading surfaceScalarField phi
    Integral of phi over patch inlet0[1] = -8.7878376e-06

Time = 6.66
    Area vector of patch inlet0[1] = (0 0 -1.156109e-05)
    Area magnitude of patch inlet0[1] = 1.156109e-05
    Reading surfaceScalarField phi
    Integral of phi over patch inlet0[1] = -9.334001e-06

Time = 6.67
    Area vector of patch inlet0[1] = (0 0 -1.156109e-05)
    Area magnitude of patch inlet0[1] = 1.156109e-05
    Reading surfaceScalarField phi
    Integral of phi over patch inlet0[1] = -9.304774e-06

Time = 6.68
    Area vector of patch inlet0[1] = (0 0 -1.156109e-05)
    Area magnitude of patch inlet0[1] = 1.156109e-05
    Reading surfaceScalarField phi
    Integral of phi over patch inlet0[1] = -8.9787127e-06

Time = 6.69
    Area vector of patch inlet0[1] = (0 0 -1.156109e-05)
    Area magnitude of patch inlet0[1] = 1.156109e-05
    Reading surfaceScalarField phi
    Integral of phi over patch inlet0[1] = -8.8205665e-06

Time = 6.7
    Area vector of patch inlet0[1] = (0 0 -1.156109e-05)
    Area magnitude of patch inlet0[1] = 1.156109e-05
    Reading surfaceScalarField phi
    Integral of phi over patch inlet0[1] = -8.7675593e-06

Time = 6.71
    Area vector of patch inlet0[1] = (0 0 -1.156109e-05)
    Area magnitude of patch inlet0[1] = 1.156109e-05
    Reading surfaceScalarField phi
    Integral of phi over patch inlet0[1] = -9.1584685e-06

Time = 6.72
    Area vector of patch inlet0[1] = (0 0 -1.156109e-05)
    Area magnitude of patch inlet0[1] = 1.156109e-05
    Reading surfaceScalarField phi
    Integral of phi over patch inlet0[1] = -8.9743766e-06

Time = 6.73
    Area vector of patch inlet0[1] = (0 0 -1.156109e-05)
    Area magnitude of patch inlet0[1] = 1.156109e-05
    Reading surfaceScalarField phi
    Integral of phi over patch inlet0[1] = -8.9369535e-06

Time = 6.74
    Area vector of patch inlet0[1] = (0 0 -1.156109e-05)
    Area magnitude of patch inlet0[1] = 1.156109e-05
    Reading surfaceScalarField phi
    Integral of phi over patch inlet0[1] = -8.4245327e-06

Time = 6.75
    Area vector of patch inlet0[1] = (0 0 -1.156109e-05)
    Area magnitude of patch inlet0[1] = 1.156109e-05
    Reading surfaceScalarField phi
    Integral of phi over patch inlet0[1] = -8.602759e-06

Time = 6.76
    Area vector of patch inlet0[1] = (0 0 -1.156109e-05)
    Area magnitude of patch inlet0[1] = 1.156109e-05
    Reading surfaceScalarField phi
    Integral of phi over patch inlet0[1] = -8.5055514e-06

Time = 6.77
    Area vector of patch inlet0[1] = (0 0 -1.156109e-05)
    Area magnitude of patch inlet0[1] = 1.156109e-05
    Reading surfaceScalarField phi
    Integral of phi over patch inlet0[1] = -8.6241452e-06

Time = 6.78
    Area vector of patch inlet0[1] = (0 0 -1.156109e-05)
    Area magnitude of patch inlet0[1] = 1.156109e-05
    Reading surfaceScalarField phi
    Integral of phi over patch inlet0[1] = -8.6624998e-06

Time = 6.79
    Area vector of patch inlet0[1] = (0 0 -1.156109e-05)
    Area magnitude of patch inlet0[1] = 1.156109e-05
    Reading surfaceScalarField phi
    Integral of phi over patch inlet0[1] = -8.407839e-06

Time = 6.8
    Area vector of patch inlet0[1] = (0 0 -1.156109e-05)
    Area magnitude of patch inlet0[1] = 1.156109e-05
    Reading surfaceScalarField phi
    Integral of phi over patch inlet0[1] = -8.5959443e-06

Time = 6.81
    Area vector of patch inlet0[1] = (0 0 -1.156109e-05)
    Area magnitude of patch inlet0[1] = 1.156109e-05
    Reading surfaceScalarField phi
    Integral of phi over patch inlet0[1] = -8.9571821e-06

Time = 6.82
    Area vector of patch inlet0[1] = (0 0 -1.156109e-05)
    Area magnitude of patch inlet0[1] = 1.156109e-05
    Reading surfaceScalarField phi
    Integral of phi over patch inlet0[1] = -8.5538121e-06

Time = 6.83
    Area vector of patch inlet0[1] = (0 0 -1.156109e-05)
    Area magnitude of patch inlet0[1] = 1.156109e-05
    Reading surfaceScalarField phi
    Integral of phi over patch inlet0[1] = -8.4777173e-06

Time = 6.84
    Area vector of patch inlet0[1] = (0 0 -1.156109e-05)
    Area magnitude of patch inlet0[1] = 1.156109e-05
    Reading surfaceScalarField phi
    Integral of phi over patch inlet0[1] = -8.5440573e-06

Time = 6.85
    Area vector of patch inlet0[1] = (0 0 -1.156109e-05)
    Area magnitude of patch inlet0[1] = 1.156109e-05
    Reading surfaceScalarField phi
    Integral of phi over patch inlet0[1] = -8.445958e-06

Time = 6.86
    Area vector of patch inlet0[1] = (0 0 -1.156109e-05)
    Area magnitude of patch inlet0[1] = 1.156109e-05
    Reading surfaceScalarField phi
    Integral of phi over patch inlet0[1] = -8.8270501e-06

Time = 6.87
    Area vector of patch inlet0[1] = (0 0 -1.156109e-05)
    Area magnitude of patch inlet0[1] = 1.156109e-05
    Reading surfaceScalarField phi
    Integral of phi over patch inlet0[1] = -8.5932688e-06

Time = 6.88
    Area vector of patch inlet0[1] = (0 0 -1.156109e-05)
    Area magnitude of patch inlet0[1] = 1.156109e-05
    Reading surfaceScalarField phi
    Integral of phi over patch inlet0[1] = -8.4082983e-06

Time = 6.89
    Area vector of patch inlet0[1] = (0 0 -1.156109e-05)
    Area magnitude of patch inlet0[1] = 1.156109e-05
    Reading surfaceScalarField phi
    Integral of phi over patch inlet0[1] = -8.6212698e-06

Time = 6.9
    Area vector of patch inlet0[1] = (0 0 -1.156109e-05)
    Area magnitude of patch inlet0[1] = 1.156109e-05
    Reading surfaceScalarField phi
    Integral of phi over patch inlet0[1] = -8.9730057e-06

Time = 6.91
    Area vector of patch inlet0[1] = (0 0 -1.156109e-05)
    Area magnitude of patch inlet0[1] = 1.156109e-05
    Reading surfaceScalarField phi
    Integral of phi over patch inlet0[1] = -8.8468151e-06

Time = 6.92
    Area vector of patch inlet0[1] = (0 0 -1.156109e-05)
    Area magnitude of patch inlet0[1] = 1.156109e-05
    Reading surfaceScalarField phi
    Integral of phi over patch inlet0[1] = -8.7335478e-06

Time = 6.93
    Area vector of patch inlet0[1] = (0 0 -1.156109e-05)
    Area magnitude of patch inlet0[1] = 1.156109e-05
    Reading surfaceScalarField phi
    Integral of phi over patch inlet0[1] = -8.5247578e-06

Time = 6.94
    Area vector of patch inlet0[1] = (0 0 -1.156109e-05)
    Area magnitude of patch inlet0[1] = 1.156109e-05
    Reading surfaceScalarField phi
    Integral of phi over patch inlet0[1] = -9.0178983e-06

Time = 6.95
    Area vector of patch inlet0[1] = (0 0 -1.156109e-05)
    Area magnitude of patch inlet0[1] = 1.156109e-05
    Reading surfaceScalarField phi
    Integral of phi over patch inlet0[1] = -8.8880862e-06

Time = 6.96
    Area vector of patch inlet0[1] = (0 0 -1.156109e-05)
    Area magnitude of patch inlet0[1] = 1.156109e-05
    Reading surfaceScalarField phi
    Integral of phi over patch inlet0[1] = -8.8300208e-06

Time = 6.97
    Area vector of patch inlet0[1] = (0 0 -1.156109e-05)
    Area magnitude of patch inlet0[1] = 1.156109e-05
    Reading surfaceScalarField phi
    Integral of phi over patch inlet0[1] = -8.5872491e-06

Time = 6.98
    Area vector of patch inlet0[1] = (0 0 -1.156109e-05)
    Area magnitude of patch inlet0[1] = 1.156109e-05
    Reading surfaceScalarField phi
    Integral of phi over patch inlet0[1] = -8.703293e-06

Time = 6.99
    Area vector of patch inlet0[1] = (0 0 -1.156109e-05)
    Area magnitude of patch inlet0[1] = 1.156109e-05
    Reading surfaceScalarField phi
    Integral of phi over patch inlet0[1] = -9.0295203e-06

Time = 7
    Area vector of patch inlet0[1] = (0 0 -1.156109e-05)
    Area magnitude of patch inlet0[1] = 1.156109e-05
    Reading surfaceScalarField phi
    Integral of phi over patch inlet0[1] = -8.6668885e-06

End

