/*---------------------------------------------------------------------------*\
| =========                 |                                                 |
| \\      /  F ield         | OpenFOAM: The Open Source CFD Toolbox           |
|  \\    /   O peration     | Version:  2.3.x                                 |
|   \\  /    A nd           | Web:      www.OpenFOAM.org                      |
|    \\/     M anipulation  |                                                 |
\*---------------------------------------------------------------------------*/
Build  : 2.3.x
Exec   : patchIntegrate phi inlet1 -time 0:7
Date   : Feb 26 2019
Time   : 21:21:30
Host   : "newton-t20-51"
PID    : 100737
Case   : /store/lmfa/fct/hluo/LocalSoftware/OpenFOAM/hluo-2.3.x/run/pipes/periodic/pipe4/Newtonian/prototype_artificiallyReducedViscosity
nProcs : 1
sigFpe : Enabling floating point exception trapping (FOAM_SIGFPE).
fileModificationChecking : Monitoring run-time modified files using timeStampMaster
allowSystemOperations : Allowing user-supplied system call operations

// * * * * * * * * * * * * * * * * * * * * * * * * * * * * * * * * * * * * * //
Create time

--> FOAM Warning : 
    From function dlOpen(const fileName&, const bool)
    in file POSIX.C at line 1179
    dlopen error : /home/lmfa/hluo/LocalSoftware/OpenFOAM/hluo-2.3.x/platforms/linux64GccDPOpt/lib/libfvOptionUserConstantExplicitPGradForce.so: undefined symbol: _ZTIN4Foam2fv6optionE
--> FOAM Warning : 
    From function dlLibraryTable::open(const fileName&, const bool)
    in file db/dynamicLibrary/dlLibraryTable/dlLibraryTable.C at line 99
    could not load "libfvOptionUserConstantExplicitPGradForce.so"
Create mesh for time = 0

Time = 0
    No field phi

Time = 0.0021
    Area vector of patch inlet1[3] = (0 0 -1.156109e-05)
    Area magnitude of patch inlet1[3] = 1.156109e-05
    Reading surfaceScalarField phi
    Integral of phi over patch inlet1[3] = -8.8745144e-06

Time = 0.004
    Area vector of patch inlet1[3] = (0 0 -1.156109e-05)
    Area magnitude of patch inlet1[3] = 1.156109e-05
    Reading surfaceScalarField phi
    Integral of phi over patch inlet1[3] = -8.9496629e-06

Time = 0.006
    Area vector of patch inlet1[3] = (0 0 -1.156109e-05)
    Area magnitude of patch inlet1[3] = 1.156109e-05
    Reading surfaceScalarField phi
    Integral of phi over patch inlet1[3] = -8.9822152e-06

Time = 0.008
    Area vector of patch inlet1[3] = (0 0 -1.156109e-05)
    Area magnitude of patch inlet1[3] = 1.156109e-05
    Reading surfaceScalarField phi
    Integral of phi over patch inlet1[3] = -8.9990213e-06

Time = 0.01
    Area vector of patch inlet1[3] = (0 0 -1.156109e-05)
    Area magnitude of patch inlet1[3] = 1.156109e-05
    Reading surfaceScalarField phi
    Integral of phi over patch inlet1[3] = -8.9823262e-06

Time = 0.02
    Area vector of patch inlet1[3] = (0 0 -1.156109e-05)
    Area magnitude of patch inlet1[3] = 1.156109e-05
    Reading surfaceScalarField phi
    Integral of phi over patch inlet1[3] = -9.2596019e-06

Time = 0.03
    Area vector of patch inlet1[3] = (0 0 -1.156109e-05)
    Area magnitude of patch inlet1[3] = 1.156109e-05
    Reading surfaceScalarField phi
    Integral of phi over patch inlet1[3] = -9.2136779e-06

Time = 0.04
    Area vector of patch inlet1[3] = (0 0 -1.156109e-05)
    Area magnitude of patch inlet1[3] = 1.156109e-05
    Reading surfaceScalarField phi
    Integral of phi over patch inlet1[3] = -9.4079397e-06

Time = 0.05
    Area vector of patch inlet1[3] = (0 0 -1.156109e-05)
    Area magnitude of patch inlet1[3] = 1.156109e-05
    Reading surfaceScalarField phi
    Integral of phi over patch inlet1[3] = -9.5508493e-06

Time = 0.06
    Area vector of patch inlet1[3] = (0 0 -1.156109e-05)
    Area magnitude of patch inlet1[3] = 1.156109e-05
    Reading surfaceScalarField phi
    Integral of phi over patch inlet1[3] = -9.4760717e-06

Time = 0.07
    Area vector of patch inlet1[3] = (0 0 -1.156109e-05)
    Area magnitude of patch inlet1[3] = 1.156109e-05
    Reading surfaceScalarField phi
    Integral of phi over patch inlet1[3] = -9.8770842e-06

Time = 0.08
    Area vector of patch inlet1[3] = (0 0 -1.156109e-05)
    Area magnitude of patch inlet1[3] = 1.156109e-05
    Reading surfaceScalarField phi
    Integral of phi over patch inlet1[3] = -9.7966713e-06

Time = 0.09
    Area vector of patch inlet1[3] = (0 0 -1.156109e-05)
    Area magnitude of patch inlet1[3] = 1.156109e-05
    Reading surfaceScalarField phi
    Integral of phi over patch inlet1[3] = -9.78288e-06

Time = 0.1
    Area vector of patch inlet1[3] = (0 0 -1.156109e-05)
    Area magnitude of patch inlet1[3] = 1.156109e-05
    Reading surfaceScalarField phi
    Integral of phi over patch inlet1[3] = -1.0133955e-05

Time = 0.11
    Area vector of patch inlet1[3] = (0 0 -1.156109e-05)
    Area magnitude of patch inlet1[3] = 1.156109e-05
    Reading surfaceScalarField phi
    Integral of phi over patch inlet1[3] = -1.0453713e-05

Time = 0.12
    Area vector of patch inlet1[3] = (0 0 -1.156109e-05)
    Area magnitude of patch inlet1[3] = 1.156109e-05
    Reading surfaceScalarField phi
    Integral of phi over patch inlet1[3] = -1.0363891e-05

Time = 0.13
    Area vector of patch inlet1[3] = (0 0 -1.156109e-05)
    Area magnitude of patch inlet1[3] = 1.156109e-05
    Reading surfaceScalarField phi
    Integral of phi over patch inlet1[3] = -1.0534766e-05

Time = 0.14
    Area vector of patch inlet1[3] = (0 0 -1.156109e-05)
    Area magnitude of patch inlet1[3] = 1.156109e-05
    Reading surfaceScalarField phi
    Integral of phi over patch inlet1[3] = -1.0553248e-05

Time = 0.15
    Area vector of patch inlet1[3] = (0 0 -1.156109e-05)
    Area magnitude of patch inlet1[3] = 1.156109e-05
    Reading surfaceScalarField phi
    Integral of phi over patch inlet1[3] = -1.0827763e-05

Time = 0.16
    Area vector of patch inlet1[3] = (0 0 -1.156109e-05)
    Area magnitude of patch inlet1[3] = 1.156109e-05
    Reading surfaceScalarField phi
    Integral of phi over patch inlet1[3] = -1.0823566e-05

Time = 0.17
    Area vector of patch inlet1[3] = (0 0 -1.156109e-05)
    Area magnitude of patch inlet1[3] = 1.156109e-05
    Reading surfaceScalarField phi
    Integral of phi over patch inlet1[3] = -1.0972367e-05

Time = 0.18
    Area vector of patch inlet1[3] = (0 0 -1.156109e-05)
    Area magnitude of patch inlet1[3] = 1.156109e-05
    Reading surfaceScalarField phi
    Integral of phi over patch inlet1[3] = -1.0935613e-05

Time = 0.19
    Area vector of patch inlet1[3] = (0 0 -1.156109e-05)
    Area magnitude of patch inlet1[3] = 1.156109e-05
    Reading surfaceScalarField phi
    Integral of phi over patch inlet1[3] = -1.1124097e-05

Time = 0.2
    Area vector of patch inlet1[3] = (0 0 -1.156109e-05)
    Area magnitude of patch inlet1[3] = 1.156109e-05
    Reading surfaceScalarField phi
    Integral of phi over patch inlet1[3] = -1.1201007e-05

Time = 0.21
    Area vector of patch inlet1[3] = (0 0 -1.156109e-05)
    Area magnitude of patch inlet1[3] = 1.156109e-05
    Reading surfaceScalarField phi
    Integral of phi over patch inlet1[3] = -1.141402e-05

Time = 0.22
    Area vector of patch inlet1[3] = (0 0 -1.156109e-05)
    Area magnitude of patch inlet1[3] = 1.156109e-05
    Reading surfaceScalarField phi
    Integral of phi over patch inlet1[3] = -1.1497152e-05

Time = 0.23
    Area vector of patch inlet1[3] = (0 0 -1.156109e-05)
    Area magnitude of patch inlet1[3] = 1.156109e-05
    Reading surfaceScalarField phi
    Integral of phi over patch inlet1[3] = -1.1477477e-05

Time = 0.24
    Area vector of patch inlet1[3] = (0 0 -1.156109e-05)
    Area magnitude of patch inlet1[3] = 1.156109e-05
    Reading surfaceScalarField phi
    Integral of phi over patch inlet1[3] = -1.1584521e-05

Time = 0.25
    Area vector of patch inlet1[3] = (0 0 -1.156109e-05)
    Area magnitude of patch inlet1[3] = 1.156109e-05
    Reading surfaceScalarField phi
    Integral of phi over patch inlet1[3] = -1.1752555e-05

Time = 0.26
    Area vector of patch inlet1[3] = (0 0 -1.156109e-05)
    Area magnitude of patch inlet1[3] = 1.156109e-05
    Reading surfaceScalarField phi
    Integral of phi over patch inlet1[3] = -1.1845807e-05

Time = 0.27
    Area vector of patch inlet1[3] = (0 0 -1.156109e-05)
    Area magnitude of patch inlet1[3] = 1.156109e-05
    Reading surfaceScalarField phi
    Integral of phi over patch inlet1[3] = -1.1930763e-05

Time = 0.28
    Area vector of patch inlet1[3] = (0 0 -1.156109e-05)
    Area magnitude of patch inlet1[3] = 1.156109e-05
    Reading surfaceScalarField phi
    Integral of phi over patch inlet1[3] = -1.1942583e-05

Time = 0.29
    Area vector of patch inlet1[3] = (0 0 -1.156109e-05)
    Area magnitude of patch inlet1[3] = 1.156109e-05
    Reading surfaceScalarField phi
    Integral of phi over patch inlet1[3] = -1.2033455e-05

Time = 0.3
    Area vector of patch inlet1[3] = (0 0 -1.156109e-05)
    Area magnitude of patch inlet1[3] = 1.156109e-05
    Reading surfaceScalarField phi
    Integral of phi over patch inlet1[3] = -1.2163978e-05

Time = 0.31
    Area vector of patch inlet1[3] = (0 0 -1.156109e-05)
    Area magnitude of patch inlet1[3] = 1.156109e-05
    Reading surfaceScalarField phi
    Integral of phi over patch inlet1[3] = -1.218234e-05

Time = 0.32
    Area vector of patch inlet1[3] = (0 0 -1.156109e-05)
    Area magnitude of patch inlet1[3] = 1.156109e-05
    Reading surfaceScalarField phi
    Integral of phi over patch inlet1[3] = -1.2366412e-05

Time = 0.33
    Area vector of patch inlet1[3] = (0 0 -1.156109e-05)
    Area magnitude of patch inlet1[3] = 1.156109e-05
    Reading surfaceScalarField phi
    Integral of phi over patch inlet1[3] = -1.2413869e-05

Time = 0.34
    Area vector of patch inlet1[3] = (0 0 -1.156109e-05)
    Area magnitude of patch inlet1[3] = 1.156109e-05
    Reading surfaceScalarField phi
    Integral of phi over patch inlet1[3] = -1.2458878e-05

Time = 0.35
    Area vector of patch inlet1[3] = (0 0 -1.156109e-05)
    Area magnitude of patch inlet1[3] = 1.156109e-05
    Reading surfaceScalarField phi
    Integral of phi over patch inlet1[3] = -1.2569535e-05

Time = 0.36
    Area vector of patch inlet1[3] = (0 0 -1.156109e-05)
    Area magnitude of patch inlet1[3] = 1.156109e-05
    Reading surfaceScalarField phi
    Integral of phi over patch inlet1[3] = -1.2658586e-05

Time = 0.37
    Area vector of patch inlet1[3] = (0 0 -1.156109e-05)
    Area magnitude of patch inlet1[3] = 1.156109e-05
    Reading surfaceScalarField phi
    Integral of phi over patch inlet1[3] = -1.2689887e-05

Time = 0.38
    Area vector of patch inlet1[3] = (0 0 -1.156109e-05)
    Area magnitude of patch inlet1[3] = 1.156109e-05
    Reading surfaceScalarField phi
    Integral of phi over patch inlet1[3] = -1.2754959e-05

Time = 0.39
    Area vector of patch inlet1[3] = (0 0 -1.156109e-05)
    Area magnitude of patch inlet1[3] = 1.156109e-05
    Reading surfaceScalarField phi
    Integral of phi over patch inlet1[3] = -1.3007793e-05

Time = 0.4
    Area vector of patch inlet1[3] = (0 0 -1.156109e-05)
    Area magnitude of patch inlet1[3] = 1.156109e-05
    Reading surfaceScalarField phi
    Integral of phi over patch inlet1[3] = -1.2997192e-05

Time = 0.41
    Area vector of patch inlet1[3] = (0 0 -1.156109e-05)
    Area magnitude of patch inlet1[3] = 1.156109e-05
    Reading surfaceScalarField phi
    Integral of phi over patch inlet1[3] = -1.3044203e-05

Time = 0.42
    Area vector of patch inlet1[3] = (0 0 -1.156109e-05)
    Area magnitude of patch inlet1[3] = 1.156109e-05
    Reading surfaceScalarField phi
    Integral of phi over patch inlet1[3] = -1.3152668e-05

Time = 0.43
    Area vector of patch inlet1[3] = (0 0 -1.156109e-05)
    Area magnitude of patch inlet1[3] = 1.156109e-05
    Reading surfaceScalarField phi
    Integral of phi over patch inlet1[3] = -1.3263228e-05

Time = 0.44
    Area vector of patch inlet1[3] = (0 0 -1.156109e-05)
    Area magnitude of patch inlet1[3] = 1.156109e-05
    Reading surfaceScalarField phi
    Integral of phi over patch inlet1[3] = -1.3343331e-05

Time = 0.45
    Area vector of patch inlet1[3] = (0 0 -1.156109e-05)
    Area magnitude of patch inlet1[3] = 1.156109e-05
    Reading surfaceScalarField phi
    Integral of phi over patch inlet1[3] = -1.3450011e-05

Time = 0.46
    Area vector of patch inlet1[3] = (0 0 -1.156109e-05)
    Area magnitude of patch inlet1[3] = 1.156109e-05
    Reading surfaceScalarField phi
    Integral of phi over patch inlet1[3] = -1.3468709e-05

Time = 0.47
    Area vector of patch inlet1[3] = (0 0 -1.156109e-05)
    Area magnitude of patch inlet1[3] = 1.156109e-05
    Reading surfaceScalarField phi
    Integral of phi over patch inlet1[3] = -1.3576611e-05

Time = 0.48
    Area vector of patch inlet1[3] = (0 0 -1.156109e-05)
    Area magnitude of patch inlet1[3] = 1.156109e-05
    Reading surfaceScalarField phi
    Integral of phi over patch inlet1[3] = -1.3570569e-05

Time = 0.49
    Area vector of patch inlet1[3] = (0 0 -1.156109e-05)
    Area magnitude of patch inlet1[3] = 1.156109e-05
    Reading surfaceScalarField phi
    Integral of phi over patch inlet1[3] = -1.369591e-05

Time = 0.5
    Area vector of patch inlet1[3] = (0 0 -1.156109e-05)
    Area magnitude of patch inlet1[3] = 1.156109e-05
    Reading surfaceScalarField phi
    Integral of phi over patch inlet1[3] = -1.3827201e-05

Time = 0.51
    Area vector of patch inlet1[3] = (0 0 -1.156109e-05)
    Area magnitude of patch inlet1[3] = 1.156109e-05
    Reading surfaceScalarField phi
    Integral of phi over patch inlet1[3] = -1.3849285e-05

Time = 0.52
    Area vector of patch inlet1[3] = (0 0 -1.156109e-05)
    Area magnitude of patch inlet1[3] = 1.156109e-05
    Reading surfaceScalarField phi
    Integral of phi over patch inlet1[3] = -1.3945879e-05

Time = 0.53
    Area vector of patch inlet1[3] = (0 0 -1.156109e-05)
    Area magnitude of patch inlet1[3] = 1.156109e-05
    Reading surfaceScalarField phi
    Integral of phi over patch inlet1[3] = -1.3995085e-05

Time = 0.54
    Area vector of patch inlet1[3] = (0 0 -1.156109e-05)
    Area magnitude of patch inlet1[3] = 1.156109e-05
    Reading surfaceScalarField phi
    Integral of phi over patch inlet1[3] = -1.4091028e-05

Time = 0.55
    Area vector of patch inlet1[3] = (0 0 -1.156109e-05)
    Area magnitude of patch inlet1[3] = 1.156109e-05
    Reading surfaceScalarField phi
    Integral of phi over patch inlet1[3] = -1.4102051e-05

Time = 0.56
    Area vector of patch inlet1[3] = (0 0 -1.156109e-05)
    Area magnitude of patch inlet1[3] = 1.156109e-05
    Reading surfaceScalarField phi
    Integral of phi over patch inlet1[3] = -1.4264998e-05

Time = 0.57
    Area vector of patch inlet1[3] = (0 0 -1.156109e-05)
    Area magnitude of patch inlet1[3] = 1.156109e-05
    Reading surfaceScalarField phi
    Integral of phi over patch inlet1[3] = -1.4222574e-05

Time = 0.58
    Area vector of patch inlet1[3] = (0 0 -1.156109e-05)
    Area magnitude of patch inlet1[3] = 1.156109e-05
    Reading surfaceScalarField phi
    Integral of phi over patch inlet1[3] = -1.4345979e-05

Time = 0.59
    Area vector of patch inlet1[3] = (0 0 -1.156109e-05)
    Area magnitude of patch inlet1[3] = 1.156109e-05
    Reading surfaceScalarField phi
    Integral of phi over patch inlet1[3] = -1.4537153e-05

Time = 0.6
    Area vector of patch inlet1[3] = (0 0 -1.156109e-05)
    Area magnitude of patch inlet1[3] = 1.156109e-05
    Reading surfaceScalarField phi
    Integral of phi over patch inlet1[3] = -1.4482055e-05

Time = 0.61
    Area vector of patch inlet1[3] = (0 0 -1.156109e-05)
    Area magnitude of patch inlet1[3] = 1.156109e-05
    Reading surfaceScalarField phi
    Integral of phi over patch inlet1[3] = -1.4563861e-05

Time = 0.62
    Area vector of patch inlet1[3] = (0 0 -1.156109e-05)
    Area magnitude of patch inlet1[3] = 1.156109e-05
    Reading surfaceScalarField phi
    Integral of phi over patch inlet1[3] = -1.466502e-05

Time = 0.63
    Area vector of patch inlet1[3] = (0 0 -1.156109e-05)
    Area magnitude of patch inlet1[3] = 1.156109e-05
    Reading surfaceScalarField phi
    Integral of phi over patch inlet1[3] = -1.4741216e-05

Time = 0.64
    Area vector of patch inlet1[3] = (0 0 -1.156109e-05)
    Area magnitude of patch inlet1[3] = 1.156109e-05
    Reading surfaceScalarField phi
    Integral of phi over patch inlet1[3] = -1.4805352e-05

Time = 0.65
    Area vector of patch inlet1[3] = (0 0 -1.156109e-05)
    Area magnitude of patch inlet1[3] = 1.156109e-05
    Reading surfaceScalarField phi
    Integral of phi over patch inlet1[3] = -1.4794071e-05

Time = 0.66
    Area vector of patch inlet1[3] = (0 0 -1.156109e-05)
    Area magnitude of patch inlet1[3] = 1.156109e-05
    Reading surfaceScalarField phi
    Integral of phi over patch inlet1[3] = -1.4976123e-05

Time = 0.67
    Area vector of patch inlet1[3] = (0 0 -1.156109e-05)
    Area magnitude of patch inlet1[3] = 1.156109e-05
    Reading surfaceScalarField phi
    Integral of phi over patch inlet1[3] = -1.4966621e-05

Time = 0.68
    Area vector of patch inlet1[3] = (0 0 -1.156109e-05)
    Area magnitude of patch inlet1[3] = 1.156109e-05
    Reading surfaceScalarField phi
    Integral of phi over patch inlet1[3] = -1.5039267e-05

Time = 0.69
    Area vector of patch inlet1[3] = (0 0 -1.156109e-05)
    Area magnitude of patch inlet1[3] = 1.156109e-05
    Reading surfaceScalarField phi
    Integral of phi over patch inlet1[3] = -1.5177436e-05

Time = 0.7
    Area vector of patch inlet1[3] = (0 0 -1.156109e-05)
    Area magnitude of patch inlet1[3] = 1.156109e-05
    Reading surfaceScalarField phi
    Integral of phi over patch inlet1[3] = -1.5132286e-05

Time = 0.71
    Area vector of patch inlet1[3] = (0 0 -1.156109e-05)
    Area magnitude of patch inlet1[3] = 1.156109e-05
    Reading surfaceScalarField phi
    Integral of phi over patch inlet1[3] = -1.5327828e-05

Time = 0.72
    Area vector of patch inlet1[3] = (0 0 -1.156109e-05)
    Area magnitude of patch inlet1[3] = 1.156109e-05
    Reading surfaceScalarField phi
    Integral of phi over patch inlet1[3] = -1.5338577e-05

Time = 0.73
    Area vector of patch inlet1[3] = (0 0 -1.156109e-05)
    Area magnitude of patch inlet1[3] = 1.156109e-05
    Reading surfaceScalarField phi
    Integral of phi over patch inlet1[3] = -1.5355915e-05

Time = 0.74
    Area vector of patch inlet1[3] = (0 0 -1.156109e-05)
    Area magnitude of patch inlet1[3] = 1.156109e-05
    Reading surfaceScalarField phi
    Integral of phi over patch inlet1[3] = -1.5387449e-05

Time = 0.75
    Area vector of patch inlet1[3] = (0 0 -1.156109e-05)
    Area magnitude of patch inlet1[3] = 1.156109e-05
    Reading surfaceScalarField phi
    Integral of phi over patch inlet1[3] = -1.5542299e-05

Time = 0.76
    Area vector of patch inlet1[3] = (0 0 -1.156109e-05)
    Area magnitude of patch inlet1[3] = 1.156109e-05
    Reading surfaceScalarField phi
    Integral of phi over patch inlet1[3] = -1.5628284e-05

Time = 0.77
    Area vector of patch inlet1[3] = (0 0 -1.156109e-05)
    Area magnitude of patch inlet1[3] = 1.156109e-05
    Reading surfaceScalarField phi
    Integral of phi over patch inlet1[3] = -1.564872e-05

Time = 0.78
    Area vector of patch inlet1[3] = (0 0 -1.156109e-05)
    Area magnitude of patch inlet1[3] = 1.156109e-05
    Reading surfaceScalarField phi
    Integral of phi over patch inlet1[3] = -1.5761134e-05

Time = 0.79
    Area vector of patch inlet1[3] = (0 0 -1.156109e-05)
    Area magnitude of patch inlet1[3] = 1.156109e-05
    Reading surfaceScalarField phi
    Integral of phi over patch inlet1[3] = -1.5738254e-05

Time = 0.8
    Area vector of patch inlet1[3] = (0 0 -1.156109e-05)
    Area magnitude of patch inlet1[3] = 1.156109e-05
    Reading surfaceScalarField phi
    Integral of phi over patch inlet1[3] = -1.570436e-05

Time = 0.81
    Area vector of patch inlet1[3] = (0 0 -1.156109e-05)
    Area magnitude of patch inlet1[3] = 1.156109e-05
    Reading surfaceScalarField phi
    Integral of phi over patch inlet1[3] = -1.5830778e-05

Time = 0.82
    Area vector of patch inlet1[3] = (0 0 -1.156109e-05)
    Area magnitude of patch inlet1[3] = 1.156109e-05
    Reading surfaceScalarField phi
    Integral of phi over patch inlet1[3] = -1.5837973e-05

Time = 0.83
    Area vector of patch inlet1[3] = (0 0 -1.156109e-05)
    Area magnitude of patch inlet1[3] = 1.156109e-05
    Reading surfaceScalarField phi
    Integral of phi over patch inlet1[3] = -1.5919213e-05

Time = 0.84
    Area vector of patch inlet1[3] = (0 0 -1.156109e-05)
    Area magnitude of patch inlet1[3] = 1.156109e-05
    Reading surfaceScalarField phi
    Integral of phi over patch inlet1[3] = -1.6082862e-05

Time = 0.85
    Area vector of patch inlet1[3] = (0 0 -1.156109e-05)
    Area magnitude of patch inlet1[3] = 1.156109e-05
    Reading surfaceScalarField phi
    Integral of phi over patch inlet1[3] = -1.6001502e-05

Time = 0.86
    Area vector of patch inlet1[3] = (0 0 -1.156109e-05)
    Area magnitude of patch inlet1[3] = 1.156109e-05
    Reading surfaceScalarField phi
    Integral of phi over patch inlet1[3] = -1.6112481e-05

Time = 0.87
    Area vector of patch inlet1[3] = (0 0 -1.156109e-05)
    Area magnitude of patch inlet1[3] = 1.156109e-05
    Reading surfaceScalarField phi
    Integral of phi over patch inlet1[3] = -1.6272786e-05

Time = 0.88
    Area vector of patch inlet1[3] = (0 0 -1.156109e-05)
    Area magnitude of patch inlet1[3] = 1.156109e-05
    Reading surfaceScalarField phi
    Integral of phi over patch inlet1[3] = -1.6106237e-05

Time = 0.89
    Area vector of patch inlet1[3] = (0 0 -1.156109e-05)
    Area magnitude of patch inlet1[3] = 1.156109e-05
    Reading surfaceScalarField phi
    Integral of phi over patch inlet1[3] = -1.61945e-05

Time = 0.9
    Area vector of patch inlet1[3] = (0 0 -1.156109e-05)
    Area magnitude of patch inlet1[3] = 1.156109e-05
    Reading surfaceScalarField phi
    Integral of phi over patch inlet1[3] = -1.6323504e-05

Time = 0.91
    Area vector of patch inlet1[3] = (0 0 -1.156109e-05)
    Area magnitude of patch inlet1[3] = 1.156109e-05
    Reading surfaceScalarField phi
    Integral of phi over patch inlet1[3] = -1.6338729e-05

Time = 0.92
    Area vector of patch inlet1[3] = (0 0 -1.156109e-05)
    Area magnitude of patch inlet1[3] = 1.156109e-05
    Reading surfaceScalarField phi
    Integral of phi over patch inlet1[3] = -1.6366368e-05

Time = 0.93
    Area vector of patch inlet1[3] = (0 0 -1.156109e-05)
    Area magnitude of patch inlet1[3] = 1.156109e-05
    Reading surfaceScalarField phi
    Integral of phi over patch inlet1[3] = -1.6605233e-05

Time = 0.94
    Area vector of patch inlet1[3] = (0 0 -1.156109e-05)
    Area magnitude of patch inlet1[3] = 1.156109e-05
    Reading surfaceScalarField phi
    Integral of phi over patch inlet1[3] = -1.6461992e-05

Time = 0.95
    Area vector of patch inlet1[3] = (0 0 -1.156109e-05)
    Area magnitude of patch inlet1[3] = 1.156109e-05
    Reading surfaceScalarField phi
    Integral of phi over patch inlet1[3] = -1.6566808e-05

Time = 0.96
    Area vector of patch inlet1[3] = (0 0 -1.156109e-05)
    Area magnitude of patch inlet1[3] = 1.156109e-05
    Reading surfaceScalarField phi
    Integral of phi over patch inlet1[3] = -1.6616896e-05

Time = 0.97
    Area vector of patch inlet1[3] = (0 0 -1.156109e-05)
    Area magnitude of patch inlet1[3] = 1.156109e-05
    Reading surfaceScalarField phi
    Integral of phi over patch inlet1[3] = -1.6663882e-05

Time = 0.98
    Area vector of patch inlet1[3] = (0 0 -1.156109e-05)
    Area magnitude of patch inlet1[3] = 1.156109e-05
    Reading surfaceScalarField phi
    Integral of phi over patch inlet1[3] = -1.666993e-05

Time = 0.99
    Area vector of patch inlet1[3] = (0 0 -1.156109e-05)
    Area magnitude of patch inlet1[3] = 1.156109e-05
    Reading surfaceScalarField phi
    Integral of phi over patch inlet1[3] = -1.682978e-05

Time = 1
    Area vector of patch inlet1[3] = (0 0 -1.156109e-05)
    Area magnitude of patch inlet1[3] = 1.156109e-05
    Reading surfaceScalarField phi
    Integral of phi over patch inlet1[3] = -1.673213e-05

Time = 1.01
    Area vector of patch inlet1[3] = (0 0 -1.156109e-05)
    Area magnitude of patch inlet1[3] = 1.156109e-05
    Reading surfaceScalarField phi
    Integral of phi over patch inlet1[3] = -1.6948622e-05

Time = 1.02
    Area vector of patch inlet1[3] = (0 0 -1.156109e-05)
    Area magnitude of patch inlet1[3] = 1.156109e-05
    Reading surfaceScalarField phi
    Integral of phi over patch inlet1[3] = -1.6943348e-05

Time = 1.03
    Area vector of patch inlet1[3] = (0 0 -1.156109e-05)
    Area magnitude of patch inlet1[3] = 1.156109e-05
    Reading surfaceScalarField phi
    Integral of phi over patch inlet1[3] = -1.6905359e-05

Time = 1.04
    Area vector of patch inlet1[3] = (0 0 -1.156109e-05)
    Area magnitude of patch inlet1[3] = 1.156109e-05
    Reading surfaceScalarField phi
    Integral of phi over patch inlet1[3] = -1.7072004e-05

Time = 1.05
    Area vector of patch inlet1[3] = (0 0 -1.156109e-05)
    Area magnitude of patch inlet1[3] = 1.156109e-05
    Reading surfaceScalarField phi
    Integral of phi over patch inlet1[3] = -1.6929522e-05

Time = 1.06
    Area vector of patch inlet1[3] = (0 0 -1.156109e-05)
    Area magnitude of patch inlet1[3] = 1.156109e-05
    Reading surfaceScalarField phi
    Integral of phi over patch inlet1[3] = -1.7195467e-05

Time = 1.07
    Area vector of patch inlet1[3] = (0 0 -1.156109e-05)
    Area magnitude of patch inlet1[3] = 1.156109e-05
    Reading surfaceScalarField phi
    Integral of phi over patch inlet1[3] = -1.7170244e-05

Time = 1.08
    Area vector of patch inlet1[3] = (0 0 -1.156109e-05)
    Area magnitude of patch inlet1[3] = 1.156109e-05
    Reading surfaceScalarField phi
    Integral of phi over patch inlet1[3] = -1.7065388e-05

Time = 1.09
    Area vector of patch inlet1[3] = (0 0 -1.156109e-05)
    Area magnitude of patch inlet1[3] = 1.156109e-05
    Reading surfaceScalarField phi
    Integral of phi over patch inlet1[3] = -1.7262182e-05

Time = 1.1
    Area vector of patch inlet1[3] = (0 0 -1.156109e-05)
    Area magnitude of patch inlet1[3] = 1.156109e-05
    Reading surfaceScalarField phi
    Integral of phi over patch inlet1[3] = -1.7182201e-05

Time = 1.11
    Area vector of patch inlet1[3] = (0 0 -1.156109e-05)
    Area magnitude of patch inlet1[3] = 1.156109e-05
    Reading surfaceScalarField phi
    Integral of phi over patch inlet1[3] = -1.7282301e-05

Time = 1.12
    Area vector of patch inlet1[3] = (0 0 -1.156109e-05)
    Area magnitude of patch inlet1[3] = 1.156109e-05
    Reading surfaceScalarField phi
    Integral of phi over patch inlet1[3] = -1.734583e-05

Time = 1.13
    Area vector of patch inlet1[3] = (0 0 -1.156109e-05)
    Area magnitude of patch inlet1[3] = 1.156109e-05
    Reading surfaceScalarField phi
    Integral of phi over patch inlet1[3] = -1.7380513e-05

Time = 1.14
    Area vector of patch inlet1[3] = (0 0 -1.156109e-05)
    Area magnitude of patch inlet1[3] = 1.156109e-05
    Reading surfaceScalarField phi
    Integral of phi over patch inlet1[3] = -1.7421665e-05

Time = 1.15
    Area vector of patch inlet1[3] = (0 0 -1.156109e-05)
    Area magnitude of patch inlet1[3] = 1.156109e-05
    Reading surfaceScalarField phi
    Integral of phi over patch inlet1[3] = -1.7422961e-05

Time = 1.16
    Area vector of patch inlet1[3] = (0 0 -1.156109e-05)
    Area magnitude of patch inlet1[3] = 1.156109e-05
    Reading surfaceScalarField phi
    Integral of phi over patch inlet1[3] = -1.7539831e-05

Time = 1.17
    Area vector of patch inlet1[3] = (0 0 -1.156109e-05)
    Area magnitude of patch inlet1[3] = 1.156109e-05
    Reading surfaceScalarField phi
    Integral of phi over patch inlet1[3] = -1.7590387e-05

Time = 1.18
    Area vector of patch inlet1[3] = (0 0 -1.156109e-05)
    Area magnitude of patch inlet1[3] = 1.156109e-05
    Reading surfaceScalarField phi
    Integral of phi over patch inlet1[3] = -1.7575918e-05

Time = 1.19
    Area vector of patch inlet1[3] = (0 0 -1.156109e-05)
    Area magnitude of patch inlet1[3] = 1.156109e-05
    Reading surfaceScalarField phi
    Integral of phi over patch inlet1[3] = -1.7538519e-05

Time = 1.2
    Area vector of patch inlet1[3] = (0 0 -1.156109e-05)
    Area magnitude of patch inlet1[3] = 1.156109e-05
    Reading surfaceScalarField phi
    Integral of phi over patch inlet1[3] = -1.763993e-05

Time = 1.21
    Area vector of patch inlet1[3] = (0 0 -1.156109e-05)
    Area magnitude of patch inlet1[3] = 1.156109e-05
    Reading surfaceScalarField phi
    Integral of phi over patch inlet1[3] = -1.7822415e-05

Time = 1.22
    Area vector of patch inlet1[3] = (0 0 -1.156109e-05)
    Area magnitude of patch inlet1[3] = 1.156109e-05
    Reading surfaceScalarField phi
    Integral of phi over patch inlet1[3] = -1.7767493e-05

Time = 1.23
    Area vector of patch inlet1[3] = (0 0 -1.156109e-05)
    Area magnitude of patch inlet1[3] = 1.156109e-05
    Reading surfaceScalarField phi
    Integral of phi over patch inlet1[3] = -1.7765166e-05

Time = 1.24
    Area vector of patch inlet1[3] = (0 0 -1.156109e-05)
    Area magnitude of patch inlet1[3] = 1.156109e-05
    Reading surfaceScalarField phi
    Integral of phi over patch inlet1[3] = -1.7821066e-05

Time = 1.25
    Area vector of patch inlet1[3] = (0 0 -1.156109e-05)
    Area magnitude of patch inlet1[3] = 1.156109e-05
    Reading surfaceScalarField phi
    Integral of phi over patch inlet1[3] = -1.7783649e-05

Time = 1.26
    Area vector of patch inlet1[3] = (0 0 -1.156109e-05)
    Area magnitude of patch inlet1[3] = 1.156109e-05
    Reading surfaceScalarField phi
    Integral of phi over patch inlet1[3] = -1.7894295e-05

Time = 1.27
    Area vector of patch inlet1[3] = (0 0 -1.156109e-05)
    Area magnitude of patch inlet1[3] = 1.156109e-05
    Reading surfaceScalarField phi
    Integral of phi over patch inlet1[3] = -1.7912547e-05

Time = 1.28
    Area vector of patch inlet1[3] = (0 0 -1.156109e-05)
    Area magnitude of patch inlet1[3] = 1.156109e-05
    Reading surfaceScalarField phi
    Integral of phi over patch inlet1[3] = -1.7926106e-05

Time = 1.29
    Area vector of patch inlet1[3] = (0 0 -1.156109e-05)
    Area magnitude of patch inlet1[3] = 1.156109e-05
    Reading surfaceScalarField phi
    Integral of phi over patch inlet1[3] = -1.8191542e-05

Time = 1.3
    Area vector of patch inlet1[3] = (0 0 -1.156109e-05)
    Area magnitude of patch inlet1[3] = 1.156109e-05
    Reading surfaceScalarField phi
    Integral of phi over patch inlet1[3] = -1.8045356e-05

Time = 1.31
    Area vector of patch inlet1[3] = (0 0 -1.156109e-05)
    Area magnitude of patch inlet1[3] = 1.156109e-05
    Reading surfaceScalarField phi
    Integral of phi over patch inlet1[3] = -1.7935557e-05

Time = 1.32
    Area vector of patch inlet1[3] = (0 0 -1.156109e-05)
    Area magnitude of patch inlet1[3] = 1.156109e-05
    Reading surfaceScalarField phi
    Integral of phi over patch inlet1[3] = -1.8089012e-05

Time = 1.33
    Area vector of patch inlet1[3] = (0 0 -1.156109e-05)
    Area magnitude of patch inlet1[3] = 1.156109e-05
    Reading surfaceScalarField phi
    Integral of phi over patch inlet1[3] = -1.8122598e-05

Time = 1.34
    Area vector of patch inlet1[3] = (0 0 -1.156109e-05)
    Area magnitude of patch inlet1[3] = 1.156109e-05
    Reading surfaceScalarField phi
    Integral of phi over patch inlet1[3] = -1.8280315e-05

Time = 1.35
    Area vector of patch inlet1[3] = (0 0 -1.156109e-05)
    Area magnitude of patch inlet1[3] = 1.156109e-05
    Reading surfaceScalarField phi
    Integral of phi over patch inlet1[3] = -1.8265477e-05

Time = 1.36
    Area vector of patch inlet1[3] = (0 0 -1.156109e-05)
    Area magnitude of patch inlet1[3] = 1.156109e-05
    Reading surfaceScalarField phi
    Integral of phi over patch inlet1[3] = -1.8209417e-05

Time = 1.37
    Area vector of patch inlet1[3] = (0 0 -1.156109e-05)
    Area magnitude of patch inlet1[3] = 1.156109e-05
    Reading surfaceScalarField phi
    Integral of phi over patch inlet1[3] = -1.8362065e-05

Time = 1.38
    Area vector of patch inlet1[3] = (0 0 -1.156109e-05)
    Area magnitude of patch inlet1[3] = 1.156109e-05
    Reading surfaceScalarField phi
    Integral of phi over patch inlet1[3] = -1.8244569e-05

Time = 1.39
    Area vector of patch inlet1[3] = (0 0 -1.156109e-05)
    Area magnitude of patch inlet1[3] = 1.156109e-05
    Reading surfaceScalarField phi
    Integral of phi over patch inlet1[3] = -1.8476571e-05

Time = 1.4
    Area vector of patch inlet1[3] = (0 0 -1.156109e-05)
    Area magnitude of patch inlet1[3] = 1.156109e-05
    Reading surfaceScalarField phi
    Integral of phi over patch inlet1[3] = -1.8519522e-05

Time = 1.41
    Area vector of patch inlet1[3] = (0 0 -1.156109e-05)
    Area magnitude of patch inlet1[3] = 1.156109e-05
    Reading surfaceScalarField phi
    Integral of phi over patch inlet1[3] = -1.8403493e-05

Time = 1.42
    Area vector of patch inlet1[3] = (0 0 -1.156109e-05)
    Area magnitude of patch inlet1[3] = 1.156109e-05
    Reading surfaceScalarField phi
    Integral of phi over patch inlet1[3] = -1.8510723e-05

Time = 1.43
    Area vector of patch inlet1[3] = (0 0 -1.156109e-05)
    Area magnitude of patch inlet1[3] = 1.156109e-05
    Reading surfaceScalarField phi
    Integral of phi over patch inlet1[3] = -1.8576374e-05

Time = 1.44
    Area vector of patch inlet1[3] = (0 0 -1.156109e-05)
    Area magnitude of patch inlet1[3] = 1.156109e-05
    Reading surfaceScalarField phi
    Integral of phi over patch inlet1[3] = -1.8544705e-05

Time = 1.45
    Area vector of patch inlet1[3] = (0 0 -1.156109e-05)
    Area magnitude of patch inlet1[3] = 1.156109e-05
    Reading surfaceScalarField phi
    Integral of phi over patch inlet1[3] = -1.873437e-05

Time = 1.46
    Area vector of patch inlet1[3] = (0 0 -1.156109e-05)
    Area magnitude of patch inlet1[3] = 1.156109e-05
    Reading surfaceScalarField phi
    Integral of phi over patch inlet1[3] = -1.8637482e-05

Time = 1.47
    Area vector of patch inlet1[3] = (0 0 -1.156109e-05)
    Area magnitude of patch inlet1[3] = 1.156109e-05
    Reading surfaceScalarField phi
    Integral of phi over patch inlet1[3] = -1.8788216e-05

Time = 1.48
    Area vector of patch inlet1[3] = (0 0 -1.156109e-05)
    Area magnitude of patch inlet1[3] = 1.156109e-05
    Reading surfaceScalarField phi
    Integral of phi over patch inlet1[3] = -1.8786771e-05

Time = 1.49
    Area vector of patch inlet1[3] = (0 0 -1.156109e-05)
    Area magnitude of patch inlet1[3] = 1.156109e-05
    Reading surfaceScalarField phi
    Integral of phi over patch inlet1[3] = -1.874206e-05

Time = 1.5
    Area vector of patch inlet1[3] = (0 0 -1.156109e-05)
    Area magnitude of patch inlet1[3] = 1.156109e-05
    Reading surfaceScalarField phi
    Integral of phi over patch inlet1[3] = -1.886182e-05

Time = 1.51
    Area vector of patch inlet1[3] = (0 0 -1.156109e-05)
    Area magnitude of patch inlet1[3] = 1.156109e-05
    Reading surfaceScalarField phi
    Integral of phi over patch inlet1[3] = -1.8927976e-05

Time = 1.52
    Area vector of patch inlet1[3] = (0 0 -1.156109e-05)
    Area magnitude of patch inlet1[3] = 1.156109e-05
    Reading surfaceScalarField phi
    Integral of phi over patch inlet1[3] = -1.8841834e-05

Time = 1.53
    Area vector of patch inlet1[3] = (0 0 -1.156109e-05)
    Area magnitude of patch inlet1[3] = 1.156109e-05
    Reading surfaceScalarField phi
    Integral of phi over patch inlet1[3] = -1.897918e-05

Time = 1.54
    Area vector of patch inlet1[3] = (0 0 -1.156109e-05)
    Area magnitude of patch inlet1[3] = 1.156109e-05
    Reading surfaceScalarField phi
    Integral of phi over patch inlet1[3] = -1.9013698e-05

Time = 1.55
    Area vector of patch inlet1[3] = (0 0 -1.156109e-05)
    Area magnitude of patch inlet1[3] = 1.156109e-05
    Reading surfaceScalarField phi
    Integral of phi over patch inlet1[3] = -1.91694e-05

Time = 1.56
    Area vector of patch inlet1[3] = (0 0 -1.156109e-05)
    Area magnitude of patch inlet1[3] = 1.156109e-05
    Reading surfaceScalarField phi
    Integral of phi over patch inlet1[3] = -1.9045789e-05

Time = 1.57
    Area vector of patch inlet1[3] = (0 0 -1.156109e-05)
    Area magnitude of patch inlet1[3] = 1.156109e-05
    Reading surfaceScalarField phi
    Integral of phi over patch inlet1[3] = -1.8818708e-05

Time = 1.58
    Area vector of patch inlet1[3] = (0 0 -1.156109e-05)
    Area magnitude of patch inlet1[3] = 1.156109e-05
    Reading surfaceScalarField phi
    Integral of phi over patch inlet1[3] = -1.9178414e-05

Time = 1.59
    Area vector of patch inlet1[3] = (0 0 -1.156109e-05)
    Area magnitude of patch inlet1[3] = 1.156109e-05
    Reading surfaceScalarField phi
    Integral of phi over patch inlet1[3] = -1.9065166e-05

Time = 1.6
    Area vector of patch inlet1[3] = (0 0 -1.156109e-05)
    Area magnitude of patch inlet1[3] = 1.156109e-05
    Reading surfaceScalarField phi
    Integral of phi over patch inlet1[3] = -1.9276598e-05

Time = 1.61
    Area vector of patch inlet1[3] = (0 0 -1.156109e-05)
    Area magnitude of patch inlet1[3] = 1.156109e-05
    Reading surfaceScalarField phi
    Integral of phi over patch inlet1[3] = -1.9214262e-05

Time = 1.62
    Area vector of patch inlet1[3] = (0 0 -1.156109e-05)
    Area magnitude of patch inlet1[3] = 1.156109e-05
    Reading surfaceScalarField phi
    Integral of phi over patch inlet1[3] = -1.9277199e-05

Time = 1.63
    Area vector of patch inlet1[3] = (0 0 -1.156109e-05)
    Area magnitude of patch inlet1[3] = 1.156109e-05
    Reading surfaceScalarField phi
    Integral of phi over patch inlet1[3] = -1.9090741e-05

Time = 1.64
    Area vector of patch inlet1[3] = (0 0 -1.156109e-05)
    Area magnitude of patch inlet1[3] = 1.156109e-05
    Reading surfaceScalarField phi
    Integral of phi over patch inlet1[3] = -1.931391e-05

Time = 1.65
    Area vector of patch inlet1[3] = (0 0 -1.156109e-05)
    Area magnitude of patch inlet1[3] = 1.156109e-05
    Reading surfaceScalarField phi
    Integral of phi over patch inlet1[3] = -1.9231053e-05

Time = 1.66
    Area vector of patch inlet1[3] = (0 0 -1.156109e-05)
    Area magnitude of patch inlet1[3] = 1.156109e-05
    Reading surfaceScalarField phi
    Integral of phi over patch inlet1[3] = -1.9372897e-05

Time = 1.67
    Area vector of patch inlet1[3] = (0 0 -1.156109e-05)
    Area magnitude of patch inlet1[3] = 1.156109e-05
    Reading surfaceScalarField phi
    Integral of phi over patch inlet1[3] = -1.9229303e-05

Time = 1.68
    Area vector of patch inlet1[3] = (0 0 -1.156109e-05)
    Area magnitude of patch inlet1[3] = 1.156109e-05
    Reading surfaceScalarField phi
    Integral of phi over patch inlet1[3] = -1.9458136e-05

Time = 1.69
    Area vector of patch inlet1[3] = (0 0 -1.156109e-05)
    Area magnitude of patch inlet1[3] = 1.156109e-05
    Reading surfaceScalarField phi
    Integral of phi over patch inlet1[3] = -1.9369189e-05

Time = 1.7
    Area vector of patch inlet1[3] = (0 0 -1.156109e-05)
    Area magnitude of patch inlet1[3] = 1.156109e-05
    Reading surfaceScalarField phi
    Integral of phi over patch inlet1[3] = -1.9364547e-05

Time = 1.71
    Area vector of patch inlet1[3] = (0 0 -1.156109e-05)
    Area magnitude of patch inlet1[3] = 1.156109e-05
    Reading surfaceScalarField phi
    Integral of phi over patch inlet1[3] = -1.960519e-05

Time = 1.72
    Area vector of patch inlet1[3] = (0 0 -1.156109e-05)
    Area magnitude of patch inlet1[3] = 1.156109e-05
    Reading surfaceScalarField phi
    Integral of phi over patch inlet1[3] = -1.929465e-05

Time = 1.73
    Area vector of patch inlet1[3] = (0 0 -1.156109e-05)
    Area magnitude of patch inlet1[3] = 1.156109e-05
    Reading surfaceScalarField phi
    Integral of phi over patch inlet1[3] = -1.9477646e-05

Time = 1.74
    Area vector of patch inlet1[3] = (0 0 -1.156109e-05)
    Area magnitude of patch inlet1[3] = 1.156109e-05
    Reading surfaceScalarField phi
    Integral of phi over patch inlet1[3] = -1.9392178e-05

Time = 1.75
    Area vector of patch inlet1[3] = (0 0 -1.156109e-05)
    Area magnitude of patch inlet1[3] = 1.156109e-05
    Reading surfaceScalarField phi
    Integral of phi over patch inlet1[3] = -1.9391052e-05

Time = 1.76
    Area vector of patch inlet1[3] = (0 0 -1.156109e-05)
    Area magnitude of patch inlet1[3] = 1.156109e-05
    Reading surfaceScalarField phi
    Integral of phi over patch inlet1[3] = -1.951294e-05

Time = 1.77
    Area vector of patch inlet1[3] = (0 0 -1.156109e-05)
    Area magnitude of patch inlet1[3] = 1.156109e-05
    Reading surfaceScalarField phi
    Integral of phi over patch inlet1[3] = -1.9284043e-05

Time = 1.78
    Area vector of patch inlet1[3] = (0 0 -1.156109e-05)
    Area magnitude of patch inlet1[3] = 1.156109e-05
    Reading surfaceScalarField phi
    Integral of phi over patch inlet1[3] = -1.9376525e-05

Time = 1.79
    Area vector of patch inlet1[3] = (0 0 -1.156109e-05)
    Area magnitude of patch inlet1[3] = 1.156109e-05
    Reading surfaceScalarField phi
    Integral of phi over patch inlet1[3] = -1.9428574e-05

Time = 1.8
    Area vector of patch inlet1[3] = (0 0 -1.156109e-05)
    Area magnitude of patch inlet1[3] = 1.156109e-05
    Reading surfaceScalarField phi
    Integral of phi over patch inlet1[3] = -1.9507448e-05

Time = 1.81
    Area vector of patch inlet1[3] = (0 0 -1.156109e-05)
    Area magnitude of patch inlet1[3] = 1.156109e-05
    Reading surfaceScalarField phi
    Integral of phi over patch inlet1[3] = -1.9528918e-05

Time = 1.82
    Area vector of patch inlet1[3] = (0 0 -1.156109e-05)
    Area magnitude of patch inlet1[3] = 1.156109e-05
    Reading surfaceScalarField phi
    Integral of phi over patch inlet1[3] = -1.9557944e-05

Time = 1.83
    Area vector of patch inlet1[3] = (0 0 -1.156109e-05)
    Area magnitude of patch inlet1[3] = 1.156109e-05
    Reading surfaceScalarField phi
    Integral of phi over patch inlet1[3] = -1.9640261e-05

Time = 1.84
    Area vector of patch inlet1[3] = (0 0 -1.156109e-05)
    Area magnitude of patch inlet1[3] = 1.156109e-05
    Reading surfaceScalarField phi
    Integral of phi over patch inlet1[3] = -1.9520409e-05

Time = 1.85
    Area vector of patch inlet1[3] = (0 0 -1.156109e-05)
    Area magnitude of patch inlet1[3] = 1.156109e-05
    Reading surfaceScalarField phi
    Integral of phi over patch inlet1[3] = -1.9608305e-05

Time = 1.86
    Area vector of patch inlet1[3] = (0 0 -1.156109e-05)
    Area magnitude of patch inlet1[3] = 1.156109e-05
    Reading surfaceScalarField phi
    Integral of phi over patch inlet1[3] = -1.9412092e-05

Time = 1.87
    Area vector of patch inlet1[3] = (0 0 -1.156109e-05)
    Area magnitude of patch inlet1[3] = 1.156109e-05
    Reading surfaceScalarField phi
    Integral of phi over patch inlet1[3] = -1.9619817e-05

Time = 1.88
    Area vector of patch inlet1[3] = (0 0 -1.156109e-05)
    Area magnitude of patch inlet1[3] = 1.156109e-05
    Reading surfaceScalarField phi
    Integral of phi over patch inlet1[3] = -1.9568016e-05

Time = 1.89
    Area vector of patch inlet1[3] = (0 0 -1.156109e-05)
    Area magnitude of patch inlet1[3] = 1.156109e-05
    Reading surfaceScalarField phi
    Integral of phi over patch inlet1[3] = -1.9458497e-05

Time = 1.9
    Area vector of patch inlet1[3] = (0 0 -1.156109e-05)
    Area magnitude of patch inlet1[3] = 1.156109e-05
    Reading surfaceScalarField phi
    Integral of phi over patch inlet1[3] = -1.9572105e-05

Time = 1.91
    Area vector of patch inlet1[3] = (0 0 -1.156109e-05)
    Area magnitude of patch inlet1[3] = 1.156109e-05
    Reading surfaceScalarField phi
    Integral of phi over patch inlet1[3] = -1.9531245e-05

Time = 1.92
    Area vector of patch inlet1[3] = (0 0 -1.156109e-05)
    Area magnitude of patch inlet1[3] = 1.156109e-05
    Reading surfaceScalarField phi
    Integral of phi over patch inlet1[3] = -1.9703235e-05

Time = 1.93
    Area vector of patch inlet1[3] = (0 0 -1.156109e-05)
    Area magnitude of patch inlet1[3] = 1.156109e-05
    Reading surfaceScalarField phi
    Integral of phi over patch inlet1[3] = -1.9597838e-05

Time = 1.94
    Area vector of patch inlet1[3] = (0 0 -1.156109e-05)
    Area magnitude of patch inlet1[3] = 1.156109e-05
    Reading surfaceScalarField phi
    Integral of phi over patch inlet1[3] = -1.9556762e-05

Time = 1.95
    Area vector of patch inlet1[3] = (0 0 -1.156109e-05)
    Area magnitude of patch inlet1[3] = 1.156109e-05
    Reading surfaceScalarField phi
    Integral of phi over patch inlet1[3] = -1.9670059e-05

Time = 1.96
    Area vector of patch inlet1[3] = (0 0 -1.156109e-05)
    Area magnitude of patch inlet1[3] = 1.156109e-05
    Reading surfaceScalarField phi
    Integral of phi over patch inlet1[3] = -1.9794195e-05

Time = 1.97
    Area vector of patch inlet1[3] = (0 0 -1.156109e-05)
    Area magnitude of patch inlet1[3] = 1.156109e-05
    Reading surfaceScalarField phi
    Integral of phi over patch inlet1[3] = -1.9612399e-05

Time = 1.98
    Area vector of patch inlet1[3] = (0 0 -1.156109e-05)
    Area magnitude of patch inlet1[3] = 1.156109e-05
    Reading surfaceScalarField phi
    Integral of phi over patch inlet1[3] = -1.9609727e-05

Time = 1.99
    Area vector of patch inlet1[3] = (0 0 -1.156109e-05)
    Area magnitude of patch inlet1[3] = 1.156109e-05
    Reading surfaceScalarField phi
    Integral of phi over patch inlet1[3] = -1.9631551e-05

Time = 2
    Area vector of patch inlet1[3] = (0 0 -1.156109e-05)
    Area magnitude of patch inlet1[3] = 1.156109e-05
    Reading surfaceScalarField phi
    Integral of phi over patch inlet1[3] = -1.9621481e-05

Time = 2.01
    Area vector of patch inlet1[3] = (0 0 -1.156109e-05)
    Area magnitude of patch inlet1[3] = 1.156109e-05
    Reading surfaceScalarField phi
    Integral of phi over patch inlet1[3] = -1.9573839e-05

Time = 2.02
    Area vector of patch inlet1[3] = (0 0 -1.156109e-05)
    Area magnitude of patch inlet1[3] = 1.156109e-05
    Reading surfaceScalarField phi
    Integral of phi over patch inlet1[3] = -1.9492674e-05

Time = 2.03
    Area vector of patch inlet1[3] = (0 0 -1.156109e-05)
    Area magnitude of patch inlet1[3] = 1.156109e-05
    Reading surfaceScalarField phi
    Integral of phi over patch inlet1[3] = -1.9699488e-05

Time = 2.04
    Area vector of patch inlet1[3] = (0 0 -1.156109e-05)
    Area magnitude of patch inlet1[3] = 1.156109e-05
    Reading surfaceScalarField phi
    Integral of phi over patch inlet1[3] = -1.9594339e-05

Time = 2.05
    Area vector of patch inlet1[3] = (0 0 -1.156109e-05)
    Area magnitude of patch inlet1[3] = 1.156109e-05
    Reading surfaceScalarField phi
    Integral of phi over patch inlet1[3] = -1.9770591e-05

Time = 2.06
    Area vector of patch inlet1[3] = (0 0 -1.156109e-05)
    Area magnitude of patch inlet1[3] = 1.156109e-05
    Reading surfaceScalarField phi
    Integral of phi over patch inlet1[3] = -1.9646038e-05

Time = 2.07
    Area vector of patch inlet1[3] = (0 0 -1.156109e-05)
    Area magnitude of patch inlet1[3] = 1.156109e-05
    Reading surfaceScalarField phi
    Integral of phi over patch inlet1[3] = -1.9642563e-05

Time = 2.08
    Area vector of patch inlet1[3] = (0 0 -1.156109e-05)
    Area magnitude of patch inlet1[3] = 1.156109e-05
    Reading surfaceScalarField phi
    Integral of phi over patch inlet1[3] = -1.9872936e-05

Time = 2.09
    Area vector of patch inlet1[3] = (0 0 -1.156109e-05)
    Area magnitude of patch inlet1[3] = 1.156109e-05
    Reading surfaceScalarField phi
    Integral of phi over patch inlet1[3] = -1.9658614e-05

Time = 2.1
    Area vector of patch inlet1[3] = (0 0 -1.156109e-05)
    Area magnitude of patch inlet1[3] = 1.156109e-05
    Reading surfaceScalarField phi
    Integral of phi over patch inlet1[3] = -1.9779143e-05

Time = 2.11
    Area vector of patch inlet1[3] = (0 0 -1.156109e-05)
    Area magnitude of patch inlet1[3] = 1.156109e-05
    Reading surfaceScalarField phi
    Integral of phi over patch inlet1[3] = -1.966331e-05

Time = 2.12
    Area vector of patch inlet1[3] = (0 0 -1.156109e-05)
    Area magnitude of patch inlet1[3] = 1.156109e-05
    Reading surfaceScalarField phi
    Integral of phi over patch inlet1[3] = -1.9754875e-05

Time = 2.13
    Area vector of patch inlet1[3] = (0 0 -1.156109e-05)
    Area magnitude of patch inlet1[3] = 1.156109e-05
    Reading surfaceScalarField phi
    Integral of phi over patch inlet1[3] = -1.982938e-05

Time = 2.14
    Area vector of patch inlet1[3] = (0 0 -1.156109e-05)
    Area magnitude of patch inlet1[3] = 1.156109e-05
    Reading surfaceScalarField phi
    Integral of phi over patch inlet1[3] = -1.9855444e-05

Time = 2.15
    Area vector of patch inlet1[3] = (0 0 -1.156109e-05)
    Area magnitude of patch inlet1[3] = 1.156109e-05
    Reading surfaceScalarField phi
    Integral of phi over patch inlet1[3] = -1.9808393e-05

Time = 2.16
    Area vector of patch inlet1[3] = (0 0 -1.156109e-05)
    Area magnitude of patch inlet1[3] = 1.156109e-05
    Reading surfaceScalarField phi
    Integral of phi over patch inlet1[3] = -1.9822868e-05

Time = 2.17
    Area vector of patch inlet1[3] = (0 0 -1.156109e-05)
    Area magnitude of patch inlet1[3] = 1.156109e-05
    Reading surfaceScalarField phi
    Integral of phi over patch inlet1[3] = -1.9690931e-05

Time = 2.18
    Area vector of patch inlet1[3] = (0 0 -1.156109e-05)
    Area magnitude of patch inlet1[3] = 1.156109e-05
    Reading surfaceScalarField phi
    Integral of phi over patch inlet1[3] = -1.9957958e-05

Time = 2.19
    Area vector of patch inlet1[3] = (0 0 -1.156109e-05)
    Area magnitude of patch inlet1[3] = 1.156109e-05
    Reading surfaceScalarField phi
    Integral of phi over patch inlet1[3] = -1.9692594e-05

Time = 2.2
    Area vector of patch inlet1[3] = (0 0 -1.156109e-05)
    Area magnitude of patch inlet1[3] = 1.156109e-05
    Reading surfaceScalarField phi
    Integral of phi over patch inlet1[3] = -1.9995714e-05

Time = 2.21
    Area vector of patch inlet1[3] = (0 0 -1.156109e-05)
    Area magnitude of patch inlet1[3] = 1.156109e-05
    Reading surfaceScalarField phi
    Integral of phi over patch inlet1[3] = -1.9901665e-05

Time = 2.22
    Area vector of patch inlet1[3] = (0 0 -1.156109e-05)
    Area magnitude of patch inlet1[3] = 1.156109e-05
    Reading surfaceScalarField phi
    Integral of phi over patch inlet1[3] = -1.9938146e-05

Time = 2.23
    Area vector of patch inlet1[3] = (0 0 -1.156109e-05)
    Area magnitude of patch inlet1[3] = 1.156109e-05
    Reading surfaceScalarField phi
    Integral of phi over patch inlet1[3] = -2.0130902e-05

Time = 2.24
    Area vector of patch inlet1[3] = (0 0 -1.156109e-05)
    Area magnitude of patch inlet1[3] = 1.156109e-05
    Reading surfaceScalarField phi
    Integral of phi over patch inlet1[3] = -1.997212e-05

Time = 2.25
    Area vector of patch inlet1[3] = (0 0 -1.156109e-05)
    Area magnitude of patch inlet1[3] = 1.156109e-05
    Reading surfaceScalarField phi
    Integral of phi over patch inlet1[3] = -2.0159928e-05

Time = 2.26
    Area vector of patch inlet1[3] = (0 0 -1.156109e-05)
    Area magnitude of patch inlet1[3] = 1.156109e-05
    Reading surfaceScalarField phi
    Integral of phi over patch inlet1[3] = -2.003984e-05

Time = 2.27
    Area vector of patch inlet1[3] = (0 0 -1.156109e-05)
    Area magnitude of patch inlet1[3] = 1.156109e-05
    Reading surfaceScalarField phi
    Integral of phi over patch inlet1[3] = -2.0092472e-05

Time = 2.28
    Area vector of patch inlet1[3] = (0 0 -1.156109e-05)
    Area magnitude of patch inlet1[3] = 1.156109e-05
    Reading surfaceScalarField phi
    Integral of phi over patch inlet1[3] = -2.0155484e-05

Time = 2.29
    Area vector of patch inlet1[3] = (0 0 -1.156109e-05)
    Area magnitude of patch inlet1[3] = 1.156109e-05
    Reading surfaceScalarField phi
    Integral of phi over patch inlet1[3] = -2.0123697e-05

Time = 2.3
    Area vector of patch inlet1[3] = (0 0 -1.156109e-05)
    Area magnitude of patch inlet1[3] = 1.156109e-05
    Reading surfaceScalarField phi
    Integral of phi over patch inlet1[3] = -2.0017224e-05

Time = 2.31
    Area vector of patch inlet1[3] = (0 0 -1.156109e-05)
    Area magnitude of patch inlet1[3] = 1.156109e-05
    Reading surfaceScalarField phi
    Integral of phi over patch inlet1[3] = -2.0064096e-05

Time = 2.32
    Area vector of patch inlet1[3] = (0 0 -1.156109e-05)
    Area magnitude of patch inlet1[3] = 1.156109e-05
    Reading surfaceScalarField phi
    Integral of phi over patch inlet1[3] = -2.0076662e-05

Time = 2.33
    Area vector of patch inlet1[3] = (0 0 -1.156109e-05)
    Area magnitude of patch inlet1[3] = 1.156109e-05
    Reading surfaceScalarField phi
    Integral of phi over patch inlet1[3] = -1.9984035e-05

Time = 2.34
    Area vector of patch inlet1[3] = (0 0 -1.156109e-05)
    Area magnitude of patch inlet1[3] = 1.156109e-05
    Reading surfaceScalarField phi
    Integral of phi over patch inlet1[3] = -2.0187937e-05

Time = 2.35
    Area vector of patch inlet1[3] = (0 0 -1.156109e-05)
    Area magnitude of patch inlet1[3] = 1.156109e-05
    Reading surfaceScalarField phi
    Integral of phi over patch inlet1[3] = -1.9992415e-05

Time = 2.36
    Area vector of patch inlet1[3] = (0 0 -1.156109e-05)
    Area magnitude of patch inlet1[3] = 1.156109e-05
    Reading surfaceScalarField phi
    Integral of phi over patch inlet1[3] = -2.0143461e-05

Time = 2.37
    Area vector of patch inlet1[3] = (0 0 -1.156109e-05)
    Area magnitude of patch inlet1[3] = 1.156109e-05
    Reading surfaceScalarField phi
    Integral of phi over patch inlet1[3] = -2.0121523e-05

Time = 2.38
    Area vector of patch inlet1[3] = (0 0 -1.156109e-05)
    Area magnitude of patch inlet1[3] = 1.156109e-05
    Reading surfaceScalarField phi
    Integral of phi over patch inlet1[3] = -2.0117555e-05

Time = 2.39
    Area vector of patch inlet1[3] = (0 0 -1.156109e-05)
    Area magnitude of patch inlet1[3] = 1.156109e-05
    Reading surfaceScalarField phi
    Integral of phi over patch inlet1[3] = -2.0267555e-05

Time = 2.4
    Area vector of patch inlet1[3] = (0 0 -1.156109e-05)
    Area magnitude of patch inlet1[3] = 1.156109e-05
    Reading surfaceScalarField phi
    Integral of phi over patch inlet1[3] = -2.0017734e-05

Time = 2.41
    Area vector of patch inlet1[3] = (0 0 -1.156109e-05)
    Area magnitude of patch inlet1[3] = 1.156109e-05
    Reading surfaceScalarField phi
    Integral of phi over patch inlet1[3] = -2.0372226e-05

Time = 2.42
    Area vector of patch inlet1[3] = (0 0 -1.156109e-05)
    Area magnitude of patch inlet1[3] = 1.156109e-05
    Reading surfaceScalarField phi
    Integral of phi over patch inlet1[3] = -2.0083798e-05

Time = 2.43
    Area vector of patch inlet1[3] = (0 0 -1.156109e-05)
    Area magnitude of patch inlet1[3] = 1.156109e-05
    Reading surfaceScalarField phi
    Integral of phi over patch inlet1[3] = -2.038387e-05

Time = 2.44
    Area vector of patch inlet1[3] = (0 0 -1.156109e-05)
    Area magnitude of patch inlet1[3] = 1.156109e-05
    Reading surfaceScalarField phi
    Integral of phi over patch inlet1[3] = -2.008367e-05

Time = 2.45
    Area vector of patch inlet1[3] = (0 0 -1.156109e-05)
    Area magnitude of patch inlet1[3] = 1.156109e-05
    Reading surfaceScalarField phi
    Integral of phi over patch inlet1[3] = -2.0337689e-05

Time = 2.46
    Area vector of patch inlet1[3] = (0 0 -1.156109e-05)
    Area magnitude of patch inlet1[3] = 1.156109e-05
    Reading surfaceScalarField phi
    Integral of phi over patch inlet1[3] = -2.0175709e-05

Time = 2.47
    Area vector of patch inlet1[3] = (0 0 -1.156109e-05)
    Area magnitude of patch inlet1[3] = 1.156109e-05
    Reading surfaceScalarField phi
    Integral of phi over patch inlet1[3] = -2.0187007e-05

Time = 2.48
    Area vector of patch inlet1[3] = (0 0 -1.156109e-05)
    Area magnitude of patch inlet1[3] = 1.156109e-05
    Reading surfaceScalarField phi
    Integral of phi over patch inlet1[3] = -2.0131706e-05

Time = 2.49
    Area vector of patch inlet1[3] = (0 0 -1.156109e-05)
    Area magnitude of patch inlet1[3] = 1.156109e-05
    Reading surfaceScalarField phi
    Integral of phi over patch inlet1[3] = -2.0134077e-05

Time = 2.5
    Area vector of patch inlet1[3] = (0 0 -1.156109e-05)
    Area magnitude of patch inlet1[3] = 1.156109e-05
    Reading surfaceScalarField phi
    Integral of phi over patch inlet1[3] = -2.0159825e-05

Time = 2.51
    Area vector of patch inlet1[3] = (0 0 -1.156109e-05)
    Area magnitude of patch inlet1[3] = 1.156109e-05
    Reading surfaceScalarField phi
    Integral of phi over patch inlet1[3] = -2.0373476e-05

Time = 2.52
    Area vector of patch inlet1[3] = (0 0 -1.156109e-05)
    Area magnitude of patch inlet1[3] = 1.156109e-05
    Reading surfaceScalarField phi
    Integral of phi over patch inlet1[3] = -2.0172615e-05

Time = 2.53
    Area vector of patch inlet1[3] = (0 0 -1.156109e-05)
    Area magnitude of patch inlet1[3] = 1.156109e-05
    Reading surfaceScalarField phi
    Integral of phi over patch inlet1[3] = -2.0284561e-05

Time = 2.54
    Area vector of patch inlet1[3] = (0 0 -1.156109e-05)
    Area magnitude of patch inlet1[3] = 1.156109e-05
    Reading surfaceScalarField phi
    Integral of phi over patch inlet1[3] = -2.017405e-05

Time = 2.55
    Area vector of patch inlet1[3] = (0 0 -1.156109e-05)
    Area magnitude of patch inlet1[3] = 1.156109e-05
    Reading surfaceScalarField phi
    Integral of phi over patch inlet1[3] = -2.0142223e-05

Time = 2.56
    Area vector of patch inlet1[3] = (0 0 -1.156109e-05)
    Area magnitude of patch inlet1[3] = 1.156109e-05
    Reading surfaceScalarField phi
    Integral of phi over patch inlet1[3] = -2.0222206e-05

Time = 2.57
    Area vector of patch inlet1[3] = (0 0 -1.156109e-05)
    Area magnitude of patch inlet1[3] = 1.156109e-05
    Reading surfaceScalarField phi
    Integral of phi over patch inlet1[3] = -2.0157195e-05

Time = 2.58
    Area vector of patch inlet1[3] = (0 0 -1.156109e-05)
    Area magnitude of patch inlet1[3] = 1.156109e-05
    Reading surfaceScalarField phi
    Integral of phi over patch inlet1[3] = -2.0330948e-05

Time = 2.59
    Area vector of patch inlet1[3] = (0 0 -1.156109e-05)
    Area magnitude of patch inlet1[3] = 1.156109e-05
    Reading surfaceScalarField phi
    Integral of phi over patch inlet1[3] = -2.0149546e-05

Time = 2.6
    Area vector of patch inlet1[3] = (0 0 -1.156109e-05)
    Area magnitude of patch inlet1[3] = 1.156109e-05
    Reading surfaceScalarField phi
    Integral of phi over patch inlet1[3] = -2.0313099e-05

Time = 2.61
    Area vector of patch inlet1[3] = (0 0 -1.156109e-05)
    Area magnitude of patch inlet1[3] = 1.156109e-05
    Reading surfaceScalarField phi
    Integral of phi over patch inlet1[3] = -2.0278869e-05

Time = 2.62
    Area vector of patch inlet1[3] = (0 0 -1.156109e-05)
    Area magnitude of patch inlet1[3] = 1.156109e-05
    Reading surfaceScalarField phi
    Integral of phi over patch inlet1[3] = -2.0193344e-05

Time = 2.63
    Area vector of patch inlet1[3] = (0 0 -1.156109e-05)
    Area magnitude of patch inlet1[3] = 1.156109e-05
    Reading surfaceScalarField phi
    Integral of phi over patch inlet1[3] = -2.0326699e-05

Time = 2.64
    Area vector of patch inlet1[3] = (0 0 -1.156109e-05)
    Area magnitude of patch inlet1[3] = 1.156109e-05
    Reading surfaceScalarField phi
    Integral of phi over patch inlet1[3] = -2.0406517e-05

Time = 2.65
    Area vector of patch inlet1[3] = (0 0 -1.156109e-05)
    Area magnitude of patch inlet1[3] = 1.156109e-05
    Reading surfaceScalarField phi
    Integral of phi over patch inlet1[3] = -2.0257986e-05

Time = 2.66
    Area vector of patch inlet1[3] = (0 0 -1.156109e-05)
    Area magnitude of patch inlet1[3] = 1.156109e-05
    Reading surfaceScalarField phi
    Integral of phi over patch inlet1[3] = -2.0380699e-05

Time = 2.67
    Area vector of patch inlet1[3] = (0 0 -1.156109e-05)
    Area magnitude of patch inlet1[3] = 1.156109e-05
    Reading surfaceScalarField phi
    Integral of phi over patch inlet1[3] = -2.0266832e-05

Time = 2.68
    Area vector of patch inlet1[3] = (0 0 -1.156109e-05)
    Area magnitude of patch inlet1[3] = 1.156109e-05
    Reading surfaceScalarField phi
    Integral of phi over patch inlet1[3] = -2.0303448e-05

Time = 2.69
    Area vector of patch inlet1[3] = (0 0 -1.156109e-05)
    Area magnitude of patch inlet1[3] = 1.156109e-05
    Reading surfaceScalarField phi
    Integral of phi over patch inlet1[3] = -2.0363252e-05

Time = 2.7
    Area vector of patch inlet1[3] = (0 0 -1.156109e-05)
    Area magnitude of patch inlet1[3] = 1.156109e-05
    Reading surfaceScalarField phi
    Integral of phi over patch inlet1[3] = -2.046625e-05

Time = 2.71
    Area vector of patch inlet1[3] = (0 0 -1.156109e-05)
    Area magnitude of patch inlet1[3] = 1.156109e-05
    Reading surfaceScalarField phi
    Integral of phi over patch inlet1[3] = -2.030105e-05

Time = 2.72
    Area vector of patch inlet1[3] = (0 0 -1.156109e-05)
    Area magnitude of patch inlet1[3] = 1.156109e-05
    Reading surfaceScalarField phi
    Integral of phi over patch inlet1[3] = -2.0387379e-05

Time = 2.73
    Area vector of patch inlet1[3] = (0 0 -1.156109e-05)
    Area magnitude of patch inlet1[3] = 1.156109e-05
    Reading surfaceScalarField phi
    Integral of phi over patch inlet1[3] = -2.0320027e-05

Time = 2.74
    Area vector of patch inlet1[3] = (0 0 -1.156109e-05)
    Area magnitude of patch inlet1[3] = 1.156109e-05
    Reading surfaceScalarField phi
    Integral of phi over patch inlet1[3] = -2.0360887e-05

Time = 2.75
    Area vector of patch inlet1[3] = (0 0 -1.156109e-05)
    Area magnitude of patch inlet1[3] = 1.156109e-05
    Reading surfaceScalarField phi
    Integral of phi over patch inlet1[3] = -2.0295622e-05

Time = 2.76
    Area vector of patch inlet1[3] = (0 0 -1.156109e-05)
    Area magnitude of patch inlet1[3] = 1.156109e-05
    Reading surfaceScalarField phi
    Integral of phi over patch inlet1[3] = -2.033246e-05

Time = 2.77
    Area vector of patch inlet1[3] = (0 0 -1.156109e-05)
    Area magnitude of patch inlet1[3] = 1.156109e-05
    Reading surfaceScalarField phi
    Integral of phi over patch inlet1[3] = -2.0444024e-05

Time = 2.78
    Area vector of patch inlet1[3] = (0 0 -1.156109e-05)
    Area magnitude of patch inlet1[3] = 1.156109e-05
    Reading surfaceScalarField phi
    Integral of phi over patch inlet1[3] = -2.0198784e-05

Time = 2.79
    Area vector of patch inlet1[3] = (0 0 -1.156109e-05)
    Area magnitude of patch inlet1[3] = 1.156109e-05
    Reading surfaceScalarField phi
    Integral of phi over patch inlet1[3] = -2.0396648e-05

Time = 2.8
    Area vector of patch inlet1[3] = (0 0 -1.156109e-05)
    Area magnitude of patch inlet1[3] = 1.156109e-05
    Reading surfaceScalarField phi
    Integral of phi over patch inlet1[3] = -2.02653e-05

Time = 2.81
    Area vector of patch inlet1[3] = (0 0 -1.156109e-05)
    Area magnitude of patch inlet1[3] = 1.156109e-05
    Reading surfaceScalarField phi
    Integral of phi over patch inlet1[3] = -2.0467689e-05

Time = 2.82
    Area vector of patch inlet1[3] = (0 0 -1.156109e-05)
    Area magnitude of patch inlet1[3] = 1.156109e-05
    Reading surfaceScalarField phi
    Integral of phi over patch inlet1[3] = -2.0441766e-05

Time = 2.83
    Area vector of patch inlet1[3] = (0 0 -1.156109e-05)
    Area magnitude of patch inlet1[3] = 1.156109e-05
    Reading surfaceScalarField phi
    Integral of phi over patch inlet1[3] = -2.0350094e-05

Time = 2.84
    Area vector of patch inlet1[3] = (0 0 -1.156109e-05)
    Area magnitude of patch inlet1[3] = 1.156109e-05
    Reading surfaceScalarField phi
    Integral of phi over patch inlet1[3] = -2.0564266e-05

Time = 2.85
    Area vector of patch inlet1[3] = (0 0 -1.156109e-05)
    Area magnitude of patch inlet1[3] = 1.156109e-05
    Reading surfaceScalarField phi
    Integral of phi over patch inlet1[3] = -2.0331585e-05

Time = 2.86
    Area vector of patch inlet1[3] = (0 0 -1.156109e-05)
    Area magnitude of patch inlet1[3] = 1.156109e-05
    Reading surfaceScalarField phi
    Integral of phi over patch inlet1[3] = -2.0578122e-05

Time = 2.87
    Area vector of patch inlet1[3] = (0 0 -1.156109e-05)
    Area magnitude of patch inlet1[3] = 1.156109e-05
    Reading surfaceScalarField phi
    Integral of phi over patch inlet1[3] = -2.0421536e-05

Time = 2.88
    Area vector of patch inlet1[3] = (0 0 -1.156109e-05)
    Area magnitude of patch inlet1[3] = 1.156109e-05
    Reading surfaceScalarField phi
    Integral of phi over patch inlet1[3] = -2.0597715e-05

Time = 2.89
    Area vector of patch inlet1[3] = (0 0 -1.156109e-05)
    Area magnitude of patch inlet1[3] = 1.156109e-05
    Reading surfaceScalarField phi
    Integral of phi over patch inlet1[3] = -2.0444547e-05

Time = 2.9
    Area vector of patch inlet1[3] = (0 0 -1.156109e-05)
    Area magnitude of patch inlet1[3] = 1.156109e-05
    Reading surfaceScalarField phi
    Integral of phi over patch inlet1[3] = -2.0599951e-05

Time = 2.91
    Area vector of patch inlet1[3] = (0 0 -1.156109e-05)
    Area magnitude of patch inlet1[3] = 1.156109e-05
    Reading surfaceScalarField phi
    Integral of phi over patch inlet1[3] = -2.0494599e-05

Time = 2.92
    Area vector of patch inlet1[3] = (0 0 -1.156109e-05)
    Area magnitude of patch inlet1[3] = 1.156109e-05
    Reading surfaceScalarField phi
    Integral of phi over patch inlet1[3] = -2.045861e-05

Time = 2.93
    Area vector of patch inlet1[3] = (0 0 -1.156109e-05)
    Area magnitude of patch inlet1[3] = 1.156109e-05
    Reading surfaceScalarField phi
    Integral of phi over patch inlet1[3] = -2.0453215e-05

Time = 2.94
    Area vector of patch inlet1[3] = (0 0 -1.156109e-05)
    Area magnitude of patch inlet1[3] = 1.156109e-05
    Reading surfaceScalarField phi
    Integral of phi over patch inlet1[3] = -2.0382358e-05

Time = 2.95
    Area vector of patch inlet1[3] = (0 0 -1.156109e-05)
    Area magnitude of patch inlet1[3] = 1.156109e-05
    Reading surfaceScalarField phi
    Integral of phi over patch inlet1[3] = -2.0495571e-05

Time = 2.96
    Area vector of patch inlet1[3] = (0 0 -1.156109e-05)
    Area magnitude of patch inlet1[3] = 1.156109e-05
    Reading surfaceScalarField phi
    Integral of phi over patch inlet1[3] = -2.0399596e-05

Time = 2.97
    Area vector of patch inlet1[3] = (0 0 -1.156109e-05)
    Area magnitude of patch inlet1[3] = 1.156109e-05
    Reading surfaceScalarField phi
    Integral of phi over patch inlet1[3] = -2.0621943e-05

Time = 2.98
    Area vector of patch inlet1[3] = (0 0 -1.156109e-05)
    Area magnitude of patch inlet1[3] = 1.156109e-05
    Reading surfaceScalarField phi
    Integral of phi over patch inlet1[3] = -2.073605e-05

Time = 2.99
    Area vector of patch inlet1[3] = (0 0 -1.156109e-05)
    Area magnitude of patch inlet1[3] = 1.156109e-05
    Reading surfaceScalarField phi
    Integral of phi over patch inlet1[3] = -2.059225e-05

Time = 3
    Area vector of patch inlet1[3] = (0 0 -1.156109e-05)
    Area magnitude of patch inlet1[3] = 1.156109e-05
    Reading surfaceScalarField phi
    Integral of phi over patch inlet1[3] = -2.0839525e-05

Time = 3.01
    Area vector of patch inlet1[3] = (0 0 -1.156109e-05)
    Area magnitude of patch inlet1[3] = 1.156109e-05
    Reading surfaceScalarField phi
    Integral of phi over patch inlet1[3] = -2.0499209e-05

Time = 3.02
    Area vector of patch inlet1[3] = (0 0 -1.156109e-05)
    Area magnitude of patch inlet1[3] = 1.156109e-05
    Reading surfaceScalarField phi
    Integral of phi over patch inlet1[3] = -2.0616989e-05

Time = 3.03
    Area vector of patch inlet1[3] = (0 0 -1.156109e-05)
    Area magnitude of patch inlet1[3] = 1.156109e-05
    Reading surfaceScalarField phi
    Integral of phi over patch inlet1[3] = -2.0605894e-05

Time = 3.04
    Area vector of patch inlet1[3] = (0 0 -1.156109e-05)
    Area magnitude of patch inlet1[3] = 1.156109e-05
    Reading surfaceScalarField phi
    Integral of phi over patch inlet1[3] = -2.0623359e-05

Time = 3.05
    Area vector of patch inlet1[3] = (0 0 -1.156109e-05)
    Area magnitude of patch inlet1[3] = 1.156109e-05
    Reading surfaceScalarField phi
    Integral of phi over patch inlet1[3] = -2.0895645e-05

Time = 3.06
    Area vector of patch inlet1[3] = (0 0 -1.156109e-05)
    Area magnitude of patch inlet1[3] = 1.156109e-05
    Reading surfaceScalarField phi
    Integral of phi over patch inlet1[3] = -2.0636003e-05

Time = 3.07
    Area vector of patch inlet1[3] = (0 0 -1.156109e-05)
    Area magnitude of patch inlet1[3] = 1.156109e-05
    Reading surfaceScalarField phi
    Integral of phi over patch inlet1[3] = -2.0880824e-05

Time = 3.08
    Area vector of patch inlet1[3] = (0 0 -1.156109e-05)
    Area magnitude of patch inlet1[3] = 1.156109e-05
    Reading surfaceScalarField phi
    Integral of phi over patch inlet1[3] = -2.0570533e-05

Time = 3.09
    Area vector of patch inlet1[3] = (0 0 -1.156109e-05)
    Area magnitude of patch inlet1[3] = 1.156109e-05
    Reading surfaceScalarField phi
    Integral of phi over patch inlet1[3] = -2.081204e-05

Time = 3.1
    Area vector of patch inlet1[3] = (0 0 -1.156109e-05)
    Area magnitude of patch inlet1[3] = 1.156109e-05
    Reading surfaceScalarField phi
    Integral of phi over patch inlet1[3] = -2.0594486e-05

Time = 3.11
    Area vector of patch inlet1[3] = (0 0 -1.156109e-05)
    Area magnitude of patch inlet1[3] = 1.156109e-05
    Reading surfaceScalarField phi
    Integral of phi over patch inlet1[3] = -2.0734281e-05

Time = 3.12
    Area vector of patch inlet1[3] = (0 0 -1.156109e-05)
    Area magnitude of patch inlet1[3] = 1.156109e-05
    Reading surfaceScalarField phi
    Integral of phi over patch inlet1[3] = -2.0733894e-05

Time = 3.13
    Area vector of patch inlet1[3] = (0 0 -1.156109e-05)
    Area magnitude of patch inlet1[3] = 1.156109e-05
    Reading surfaceScalarField phi
    Integral of phi over patch inlet1[3] = -2.0880985e-05

Time = 3.14
    Area vector of patch inlet1[3] = (0 0 -1.156109e-05)
    Area magnitude of patch inlet1[3] = 1.156109e-05
    Reading surfaceScalarField phi
    Integral of phi over patch inlet1[3] = -2.0723815e-05

Time = 3.15
    Area vector of patch inlet1[3] = (0 0 -1.156109e-05)
    Area magnitude of patch inlet1[3] = 1.156109e-05
    Reading surfaceScalarField phi
    Integral of phi over patch inlet1[3] = -2.0640625e-05

Time = 3.16
    Area vector of patch inlet1[3] = (0 0 -1.156109e-05)
    Area magnitude of patch inlet1[3] = 1.156109e-05
    Reading surfaceScalarField phi
    Integral of phi over patch inlet1[3] = -2.0761999e-05

Time = 3.17
    Area vector of patch inlet1[3] = (0 0 -1.156109e-05)
    Area magnitude of patch inlet1[3] = 1.156109e-05
    Reading surfaceScalarField phi
    Integral of phi over patch inlet1[3] = -2.0578362e-05

Time = 3.18
    Area vector of patch inlet1[3] = (0 0 -1.156109e-05)
    Area magnitude of patch inlet1[3] = 1.156109e-05
    Reading surfaceScalarField phi
    Integral of phi over patch inlet1[3] = -2.0688292e-05

Time = 3.19
    Area vector of patch inlet1[3] = (0 0 -1.156109e-05)
    Area magnitude of patch inlet1[3] = 1.156109e-05
    Reading surfaceScalarField phi
    Integral of phi over patch inlet1[3] = -2.04932e-05

Time = 3.2
    Area vector of patch inlet1[3] = (0 0 -1.156109e-05)
    Area magnitude of patch inlet1[3] = 1.156109e-05
    Reading surfaceScalarField phi
    Integral of phi over patch inlet1[3] = -2.0597343e-05

Time = 3.21
    Area vector of patch inlet1[3] = (0 0 -1.156109e-05)
    Area magnitude of patch inlet1[3] = 1.156109e-05
    Reading surfaceScalarField phi
    Integral of phi over patch inlet1[3] = -2.0629657e-05

Time = 3.22
    Area vector of patch inlet1[3] = (0 0 -1.156109e-05)
    Area magnitude of patch inlet1[3] = 1.156109e-05
    Reading surfaceScalarField phi
    Integral of phi over patch inlet1[3] = -2.0552101e-05

Time = 3.23
    Area vector of patch inlet1[3] = (0 0 -1.156109e-05)
    Area magnitude of patch inlet1[3] = 1.156109e-05
    Reading surfaceScalarField phi
    Integral of phi over patch inlet1[3] = -2.071249e-05

Time = 3.24
    Area vector of patch inlet1[3] = (0 0 -1.156109e-05)
    Area magnitude of patch inlet1[3] = 1.156109e-05
    Reading surfaceScalarField phi
    Integral of phi over patch inlet1[3] = -2.0526143e-05

Time = 3.25
    Area vector of patch inlet1[3] = (0 0 -1.156109e-05)
    Area magnitude of patch inlet1[3] = 1.156109e-05
    Reading surfaceScalarField phi
    Integral of phi over patch inlet1[3] = -2.0620846e-05

Time = 3.26
    Area vector of patch inlet1[3] = (0 0 -1.156109e-05)
    Area magnitude of patch inlet1[3] = 1.156109e-05
    Reading surfaceScalarField phi
    Integral of phi over patch inlet1[3] = -2.0402982e-05

Time = 3.27
    Area vector of patch inlet1[3] = (0 0 -1.156109e-05)
    Area magnitude of patch inlet1[3] = 1.156109e-05
    Reading surfaceScalarField phi
    Integral of phi over patch inlet1[3] = -2.0441591e-05

Time = 3.28
    Area vector of patch inlet1[3] = (0 0 -1.156109e-05)
    Area magnitude of patch inlet1[3] = 1.156109e-05
    Reading surfaceScalarField phi
    Integral of phi over patch inlet1[3] = -2.0585701e-05

Time = 3.29
    Area vector of patch inlet1[3] = (0 0 -1.156109e-05)
    Area magnitude of patch inlet1[3] = 1.156109e-05
    Reading surfaceScalarField phi
    Integral of phi over patch inlet1[3] = -2.0599624e-05

Time = 3.3
    Area vector of patch inlet1[3] = (0 0 -1.156109e-05)
    Area magnitude of patch inlet1[3] = 1.156109e-05
    Reading surfaceScalarField phi
    Integral of phi over patch inlet1[3] = -2.0587766e-05

Time = 3.31
    Area vector of patch inlet1[3] = (0 0 -1.156109e-05)
    Area magnitude of patch inlet1[3] = 1.156109e-05
    Reading surfaceScalarField phi
    Integral of phi over patch inlet1[3] = -2.0459658e-05

Time = 3.32
    Area vector of patch inlet1[3] = (0 0 -1.156109e-05)
    Area magnitude of patch inlet1[3] = 1.156109e-05
    Reading surfaceScalarField phi
    Integral of phi over patch inlet1[3] = -2.0724741e-05

Time = 3.33
    Area vector of patch inlet1[3] = (0 0 -1.156109e-05)
    Area magnitude of patch inlet1[3] = 1.156109e-05
    Reading surfaceScalarField phi
    Integral of phi over patch inlet1[3] = -2.0486713e-05

Time = 3.34
    Area vector of patch inlet1[3] = (0 0 -1.156109e-05)
    Area magnitude of patch inlet1[3] = 1.156109e-05
    Reading surfaceScalarField phi
    Integral of phi over patch inlet1[3] = -2.0695677e-05

Time = 3.35
    Area vector of patch inlet1[3] = (0 0 -1.156109e-05)
    Area magnitude of patch inlet1[3] = 1.156109e-05
    Reading surfaceScalarField phi
    Integral of phi over patch inlet1[3] = -2.0392285e-05

Time = 3.36
    Area vector of patch inlet1[3] = (0 0 -1.156109e-05)
    Area magnitude of patch inlet1[3] = 1.156109e-05
    Reading surfaceScalarField phi
    Integral of phi over patch inlet1[3] = -2.0671435e-05

Time = 3.37
    Area vector of patch inlet1[3] = (0 0 -1.156109e-05)
    Area magnitude of patch inlet1[3] = 1.156109e-05
    Reading surfaceScalarField phi
    Integral of phi over patch inlet1[3] = -2.0621297e-05

Time = 3.38
    Area vector of patch inlet1[3] = (0 0 -1.156109e-05)
    Area magnitude of patch inlet1[3] = 1.156109e-05
    Reading surfaceScalarField phi
    Integral of phi over patch inlet1[3] = -2.0597155e-05

Time = 3.39
    Area vector of patch inlet1[3] = (0 0 -1.156109e-05)
    Area magnitude of patch inlet1[3] = 1.156109e-05
    Reading surfaceScalarField phi
    Integral of phi over patch inlet1[3] = -2.0585067e-05

Time = 3.4
    Area vector of patch inlet1[3] = (0 0 -1.156109e-05)
    Area magnitude of patch inlet1[3] = 1.156109e-05
    Reading surfaceScalarField phi
    Integral of phi over patch inlet1[3] = -2.0314305e-05

Time = 3.41
    Area vector of patch inlet1[3] = (0 0 -1.156109e-05)
    Area magnitude of patch inlet1[3] = 1.156109e-05
    Reading surfaceScalarField phi
    Integral of phi over patch inlet1[3] = -2.0505027e-05

Time = 3.42
    Area vector of patch inlet1[3] = (0 0 -1.156109e-05)
    Area magnitude of patch inlet1[3] = 1.156109e-05
    Reading surfaceScalarField phi
    Integral of phi over patch inlet1[3] = -2.0383169e-05

Time = 3.43
    Area vector of patch inlet1[3] = (0 0 -1.156109e-05)
    Area magnitude of patch inlet1[3] = 1.156109e-05
    Reading surfaceScalarField phi
    Integral of phi over patch inlet1[3] = -2.0533775e-05

Time = 3.44
    Area vector of patch inlet1[3] = (0 0 -1.156109e-05)
    Area magnitude of patch inlet1[3] = 1.156109e-05
    Reading surfaceScalarField phi
    Integral of phi over patch inlet1[3] = -2.0572122e-05

Time = 3.45
    Area vector of patch inlet1[3] = (0 0 -1.156109e-05)
    Area magnitude of patch inlet1[3] = 1.156109e-05
    Reading surfaceScalarField phi
    Integral of phi over patch inlet1[3] = -2.0442992e-05

Time = 3.46
    Area vector of patch inlet1[3] = (0 0 -1.156109e-05)
    Area magnitude of patch inlet1[3] = 1.156109e-05
    Reading surfaceScalarField phi
    Integral of phi over patch inlet1[3] = -2.0620649e-05

Time = 3.47
    Area vector of patch inlet1[3] = (0 0 -1.156109e-05)
    Area magnitude of patch inlet1[3] = 1.156109e-05
    Reading surfaceScalarField phi
    Integral of phi over patch inlet1[3] = -2.0472884e-05

Time = 3.48
    Area vector of patch inlet1[3] = (0 0 -1.156109e-05)
    Area magnitude of patch inlet1[3] = 1.156109e-05
    Reading surfaceScalarField phi
    Integral of phi over patch inlet1[3] = -2.0593197e-05

Time = 3.49
    Area vector of patch inlet1[3] = (0 0 -1.156109e-05)
    Area magnitude of patch inlet1[3] = 1.156109e-05
    Reading surfaceScalarField phi
    Integral of phi over patch inlet1[3] = -2.059745e-05

Time = 3.5
    Area vector of patch inlet1[3] = (0 0 -1.156109e-05)
    Area magnitude of patch inlet1[3] = 1.156109e-05
    Reading surfaceScalarField phi
    Integral of phi over patch inlet1[3] = -2.0627993e-05

Time = 3.51
    Area vector of patch inlet1[3] = (0 0 -1.156109e-05)
    Area magnitude of patch inlet1[3] = 1.156109e-05
    Reading surfaceScalarField phi
    Integral of phi over patch inlet1[3] = -2.0295057e-05

Time = 3.52
    Area vector of patch inlet1[3] = (0 0 -1.156109e-05)
    Area magnitude of patch inlet1[3] = 1.156109e-05
    Reading surfaceScalarField phi
    Integral of phi over patch inlet1[3] = -1.9831931e-05

Time = 3.53
    Area vector of patch inlet1[3] = (0 0 -1.156109e-05)
    Area magnitude of patch inlet1[3] = 1.156109e-05
    Reading surfaceScalarField phi
    Integral of phi over patch inlet1[3] = -1.9491048e-05

Time = 3.54
    Area vector of patch inlet1[3] = (0 0 -1.156109e-05)
    Area magnitude of patch inlet1[3] = 1.156109e-05
    Reading surfaceScalarField phi
    Integral of phi over patch inlet1[3] = -1.9287872e-05

Time = 3.55
    Area vector of patch inlet1[3] = (0 0 -1.156109e-05)
    Area magnitude of patch inlet1[3] = 1.156109e-05
    Reading surfaceScalarField phi
    Integral of phi over patch inlet1[3] = -1.906084e-05

Time = 3.56
    Area vector of patch inlet1[3] = (0 0 -1.156109e-05)
    Area magnitude of patch inlet1[3] = 1.156109e-05
    Reading surfaceScalarField phi
    Integral of phi over patch inlet1[3] = -1.8883499e-05

Time = 3.57
    Area vector of patch inlet1[3] = (0 0 -1.156109e-05)
    Area magnitude of patch inlet1[3] = 1.156109e-05
    Reading surfaceScalarField phi
    Integral of phi over patch inlet1[3] = -1.8726375e-05

Time = 3.58
    Area vector of patch inlet1[3] = (0 0 -1.156109e-05)
    Area magnitude of patch inlet1[3] = 1.156109e-05
    Reading surfaceScalarField phi
    Integral of phi over patch inlet1[3] = -1.8734593e-05

Time = 3.59
    Area vector of patch inlet1[3] = (0 0 -1.156109e-05)
    Area magnitude of patch inlet1[3] = 1.156109e-05
[...]
    Reading surfaceScalarField phi
    Integral of phi over patch inlet1[3] = -8.8173452e-06

Time = 6.09
    Area vector of patch inlet1[3] = (0 0 -1.156109e-05)
    Area magnitude of patch inlet1[3] = 1.156109e-05
    Reading surfaceScalarField phi
    Integral of phi over patch inlet1[3] = -8.7897597e-06

Time = 6.1
    Area vector of patch inlet1[3] = (0 0 -1.156109e-05)
    Area magnitude of patch inlet1[3] = 1.156109e-05
    Reading surfaceScalarField phi
    Integral of phi over patch inlet1[3] = -9.120843e-06

Time = 6.11
    Area vector of patch inlet1[3] = (0 0 -1.156109e-05)
    Area magnitude of patch inlet1[3] = 1.156109e-05
    Reading surfaceScalarField phi
    Integral of phi over patch inlet1[3] = -8.9743438e-06

Time = 6.12
    Area vector of patch inlet1[3] = (0 0 -1.156109e-05)
    Area magnitude of patch inlet1[3] = 1.156109e-05
    Reading surfaceScalarField phi
    Integral of phi over patch inlet1[3] = -8.3076273e-06

Time = 6.13
    Area vector of patch inlet1[3] = (0 0 -1.156109e-05)
    Area magnitude of patch inlet1[3] = 1.156109e-05
    Reading surfaceScalarField phi
    Integral of phi over patch inlet1[3] = -8.487837e-06

Time = 6.14
    Area vector of patch inlet1[3] = (0 0 -1.156109e-05)
    Area magnitude of patch inlet1[3] = 1.156109e-05
    Reading surfaceScalarField phi
    Integral of phi over patch inlet1[3] = -9.1225386e-06

Time = 6.15
    Area vector of patch inlet1[3] = (0 0 -1.156109e-05)
    Area magnitude of patch inlet1[3] = 1.156109e-05
    Reading surfaceScalarField phi
    Integral of phi over patch inlet1[3] = -8.718704e-06

Time = 6.16
    Area vector of patch inlet1[3] = (0 0 -1.156109e-05)
    Area magnitude of patch inlet1[3] = 1.156109e-05
    Reading surfaceScalarField phi
    Integral of phi over patch inlet1[3] = -8.525719e-06

Time = 6.17
    Area vector of patch inlet1[3] = (0 0 -1.156109e-05)
    Area magnitude of patch inlet1[3] = 1.156109e-05
    Reading surfaceScalarField phi
    Integral of phi over patch inlet1[3] = -8.9182093e-06

Time = 6.18
    Area vector of patch inlet1[3] = (0 0 -1.156109e-05)
    Area magnitude of patch inlet1[3] = 1.156109e-05
    Reading surfaceScalarField phi
    Integral of phi over patch inlet1[3] = -8.8716636e-06

Time = 6.19
    Area vector of patch inlet1[3] = (0 0 -1.156109e-05)
    Area magnitude of patch inlet1[3] = 1.156109e-05
    Reading surfaceScalarField phi
    Integral of phi over patch inlet1[3] = -8.9347242e-06

Time = 6.2
    Area vector of patch inlet1[3] = (0 0 -1.156109e-05)
    Area magnitude of patch inlet1[3] = 1.156109e-05
    Reading surfaceScalarField phi
    Integral of phi over patch inlet1[3] = -8.4531836e-06

Time = 6.21
    Area vector of patch inlet1[3] = (0 0 -1.156109e-05)
    Area magnitude of patch inlet1[3] = 1.156109e-05
    Reading surfaceScalarField phi
    Integral of phi over patch inlet1[3] = -8.2075639e-06

Time = 6.22
    Area vector of patch inlet1[3] = (0 0 -1.156109e-05)
    Area magnitude of patch inlet1[3] = 1.156109e-05
    Reading surfaceScalarField phi
    Integral of phi over patch inlet1[3] = -8.9415892e-06

Time = 6.23
    Area vector of patch inlet1[3] = (0 0 -1.156109e-05)
    Area magnitude of patch inlet1[3] = 1.156109e-05
    Reading surfaceScalarField phi
    Integral of phi over patch inlet1[3] = -8.7230794e-06

Time = 6.24
    Area vector of patch inlet1[3] = (0 0 -1.156109e-05)
    Area magnitude of patch inlet1[3] = 1.156109e-05
    Reading surfaceScalarField phi
    Integral of phi over patch inlet1[3] = -8.7565667e-06

Time = 6.25
    Area vector of patch inlet1[3] = (0 0 -1.156109e-05)
    Area magnitude of patch inlet1[3] = 1.156109e-05
    Reading surfaceScalarField phi
    Integral of phi over patch inlet1[3] = -8.1772642e-06

Time = 6.26
    Area vector of patch inlet1[3] = (0 0 -1.156109e-05)
    Area magnitude of patch inlet1[3] = 1.156109e-05
    Reading surfaceScalarField phi
    Integral of phi over patch inlet1[3] = -8.4242175e-06

Time = 6.27
    Area vector of patch inlet1[3] = (0 0 -1.156109e-05)
    Area magnitude of patch inlet1[3] = 1.156109e-05
    Reading surfaceScalarField phi
    Integral of phi over patch inlet1[3] = -8.9167767e-06

Time = 6.28
    Area vector of patch inlet1[3] = (0 0 -1.156109e-05)
    Area magnitude of patch inlet1[3] = 1.156109e-05
    Reading surfaceScalarField phi
    Integral of phi over patch inlet1[3] = -8.5698421e-06

Time = 6.29
    Area vector of patch inlet1[3] = (0 0 -1.156109e-05)
    Area magnitude of patch inlet1[3] = 1.156109e-05
    Reading surfaceScalarField phi
    Integral of phi over patch inlet1[3] = -8.7434147e-06

Time = 6.3
    Area vector of patch inlet1[3] = (0 0 -1.156109e-05)
    Area magnitude of patch inlet1[3] = 1.156109e-05
    Reading surfaceScalarField phi
    Integral of phi over patch inlet1[3] = -8.4516603e-06

Time = 6.31
    Area vector of patch inlet1[3] = (0 0 -1.156109e-05)
    Area magnitude of patch inlet1[3] = 1.156109e-05
    Reading surfaceScalarField phi
    Integral of phi over patch inlet1[3] = -8.5548731e-06

Time = 6.32
    Area vector of patch inlet1[3] = (0 0 -1.156109e-05)
    Area magnitude of patch inlet1[3] = 1.156109e-05
    Reading surfaceScalarField phi
    Integral of phi over patch inlet1[3] = -8.7445853e-06

Time = 6.33
    Area vector of patch inlet1[3] = (0 0 -1.156109e-05)
    Area magnitude of patch inlet1[3] = 1.156109e-05
    Reading surfaceScalarField phi
    Integral of phi over patch inlet1[3] = -8.8012858e-06

Time = 6.34
    Area vector of patch inlet1[3] = (0 0 -1.156109e-05)
    Area magnitude of patch inlet1[3] = 1.156109e-05
    Reading surfaceScalarField phi
    Integral of phi over patch inlet1[3] = -8.4234675e-06

Time = 6.35
    Area vector of patch inlet1[3] = (0 0 -1.156109e-05)
    Area magnitude of patch inlet1[3] = 1.156109e-05
    Reading surfaceScalarField phi
    Integral of phi over patch inlet1[3] = -8.7625958e-06

Time = 6.36
    Area vector of patch inlet1[3] = (0 0 -1.156109e-05)
    Area magnitude of patch inlet1[3] = 1.156109e-05
    Reading surfaceScalarField phi
    Integral of phi over patch inlet1[3] = -8.7175996e-06

Time = 6.37
    Area vector of patch inlet1[3] = (0 0 -1.156109e-05)
    Area magnitude of patch inlet1[3] = 1.156109e-05
    Reading surfaceScalarField phi
    Integral of phi over patch inlet1[3] = -8.4166849e-06

Time = 6.38
    Area vector of patch inlet1[3] = (0 0 -1.156109e-05)
    Area magnitude of patch inlet1[3] = 1.156109e-05
    Reading surfaceScalarField phi
    Integral of phi over patch inlet1[3] = -8.7537967e-06

Time = 6.39
    Area vector of patch inlet1[3] = (0 0 -1.156109e-05)
    Area magnitude of patch inlet1[3] = 1.156109e-05
    Reading surfaceScalarField phi
    Integral of phi over patch inlet1[3] = -8.8097849e-06

Time = 6.4
    Area vector of patch inlet1[3] = (0 0 -1.156109e-05)
    Area magnitude of patch inlet1[3] = 1.156109e-05
    Reading surfaceScalarField phi
    Integral of phi over patch inlet1[3] = -8.6883518e-06

Time = 6.41
    Area vector of patch inlet1[3] = (0 0 -1.156109e-05)
    Area magnitude of patch inlet1[3] = 1.156109e-05
    Reading surfaceScalarField phi
    Integral of phi over patch inlet1[3] = -8.8095992e-06

Time = 6.42
    Area vector of patch inlet1[3] = (0 0 -1.156109e-05)
    Area magnitude of patch inlet1[3] = 1.156109e-05
    Reading surfaceScalarField phi
    Integral of phi over patch inlet1[3] = -8.5342367e-06

Time = 6.43
    Area vector of patch inlet1[3] = (0 0 -1.156109e-05)
    Area magnitude of patch inlet1[3] = 1.156109e-05
    Reading surfaceScalarField phi
    Integral of phi over patch inlet1[3] = -8.5790377e-06

Time = 6.44
    Area vector of patch inlet1[3] = (0 0 -1.156109e-05)
    Area magnitude of patch inlet1[3] = 1.156109e-05
    Reading surfaceScalarField phi
    Integral of phi over patch inlet1[3] = -8.7110014e-06

Time = 6.45
    Area vector of patch inlet1[3] = (0 0 -1.156109e-05)
    Area magnitude of patch inlet1[3] = 1.156109e-05
    Reading surfaceScalarField phi
    Integral of phi over patch inlet1[3] = -8.7025186e-06

Time = 6.46
    Area vector of patch inlet1[3] = (0 0 -1.156109e-05)
    Area magnitude of patch inlet1[3] = 1.156109e-05
    Reading surfaceScalarField phi
    Integral of phi over patch inlet1[3] = -8.6363464e-06

Time = 6.47
    Area vector of patch inlet1[3] = (0 0 -1.156109e-05)
    Area magnitude of patch inlet1[3] = 1.156109e-05
    Reading surfaceScalarField phi
    Integral of phi over patch inlet1[3] = -8.7664622e-06

Time = 6.48
    Area vector of patch inlet1[3] = (0 0 -1.156109e-05)
    Area magnitude of patch inlet1[3] = 1.156109e-05
    Reading surfaceScalarField phi
    Integral of phi over patch inlet1[3] = -8.4515518e-06

Time = 6.49
    Area vector of patch inlet1[3] = (0 0 -1.156109e-05)
    Area magnitude of patch inlet1[3] = 1.156109e-05
    Reading surfaceScalarField phi
    Integral of phi over patch inlet1[3] = -8.7248896e-06

Time = 6.5
    Area vector of patch inlet1[3] = (0 0 -1.156109e-05)
    Area magnitude of patch inlet1[3] = 1.156109e-05
    Reading surfaceScalarField phi
    Integral of phi over patch inlet1[3] = -8.7394846e-06

Time = 6.51
    Area vector of patch inlet1[3] = (0 0 -1.156109e-05)
    Area magnitude of patch inlet1[3] = 1.156109e-05
    Reading surfaceScalarField phi
    Integral of phi over patch inlet1[3] = -8.705124e-06

Time = 6.52
    Area vector of patch inlet1[3] = (0 0 -1.156109e-05)
    Area magnitude of patch inlet1[3] = 1.156109e-05
    Reading surfaceScalarField phi
    Integral of phi over patch inlet1[3] = -8.8684465e-06

Time = 6.53
    Area vector of patch inlet1[3] = (0 0 -1.156109e-05)
    Area magnitude of patch inlet1[3] = 1.156109e-05
    Reading surfaceScalarField phi
    Integral of phi over patch inlet1[3] = -8.6337514e-06

Time = 6.54
    Area vector of patch inlet1[3] = (0 0 -1.156109e-05)
    Area magnitude of patch inlet1[3] = 1.156109e-05
    Reading surfaceScalarField phi
    Integral of phi over patch inlet1[3] = -8.7925434e-06

Time = 6.55
    Area vector of patch inlet1[3] = (0 0 -1.156109e-05)
    Area magnitude of patch inlet1[3] = 1.156109e-05
    Reading surfaceScalarField phi
    Integral of phi over patch inlet1[3] = -8.8208312e-06

Time = 6.56
    Area vector of patch inlet1[3] = (0 0 -1.156109e-05)
    Area magnitude of patch inlet1[3] = 1.156109e-05
    Reading surfaceScalarField phi
    Integral of phi over patch inlet1[3] = -8.9649347e-06

Time = 6.57
    Area vector of patch inlet1[3] = (0 0 -1.156109e-05)
    Area magnitude of patch inlet1[3] = 1.156109e-05
    Reading surfaceScalarField phi
    Integral of phi over patch inlet1[3] = -8.5171195e-06

Time = 6.58
    Area vector of patch inlet1[3] = (0 0 -1.156109e-05)
    Area magnitude of patch inlet1[3] = 1.156109e-05
    Reading surfaceScalarField phi
    Integral of phi over patch inlet1[3] = -8.6033285e-06

Time = 6.59
    Area vector of patch inlet1[3] = (0 0 -1.156109e-05)
    Area magnitude of patch inlet1[3] = 1.156109e-05
    Reading surfaceScalarField phi
    Integral of phi over patch inlet1[3] = -8.9818094e-06

Time = 6.6
    Area vector of patch inlet1[3] = (0 0 -1.156109e-05)
    Area magnitude of patch inlet1[3] = 1.156109e-05
    Reading surfaceScalarField phi
    Integral of phi over patch inlet1[3] = -9.0510846e-06

Time = 6.61
    Area vector of patch inlet1[3] = (0 0 -1.156109e-05)
    Area magnitude of patch inlet1[3] = 1.156109e-05
    Reading surfaceScalarField phi
    Integral of phi over patch inlet1[3] = -9.0750176e-06

Time = 6.62
    Area vector of patch inlet1[3] = (0 0 -1.156109e-05)
    Area magnitude of patch inlet1[3] = 1.156109e-05
    Reading surfaceScalarField phi
    Integral of phi over patch inlet1[3] = -8.5314479e-06

Time = 6.63
    Area vector of patch inlet1[3] = (0 0 -1.156109e-05)
    Area magnitude of patch inlet1[3] = 1.156109e-05
    Reading surfaceScalarField phi
    Integral of phi over patch inlet1[3] = -8.6002591e-06

Time = 6.64
    Area vector of patch inlet1[3] = (0 0 -1.156109e-05)
    Area magnitude of patch inlet1[3] = 1.156109e-05
    Reading surfaceScalarField phi
    Integral of phi over patch inlet1[3] = -8.5417864e-06

Time = 6.65
    Area vector of patch inlet1[3] = (0 0 -1.156109e-05)
    Area magnitude of patch inlet1[3] = 1.156109e-05
    Reading surfaceScalarField phi
    Integral of phi over patch inlet1[3] = -9.0893387e-06

Time = 6.66
    Area vector of patch inlet1[3] = (0 0 -1.156109e-05)
    Area magnitude of patch inlet1[3] = 1.156109e-05
    Reading surfaceScalarField phi
    Integral of phi over patch inlet1[3] = -8.7260984e-06

Time = 6.67
    Area vector of patch inlet1[3] = (0 0 -1.156109e-05)
    Area magnitude of patch inlet1[3] = 1.156109e-05
    Reading surfaceScalarField phi
    Integral of phi over patch inlet1[3] = -8.8142092e-06

Time = 6.68
    Area vector of patch inlet1[3] = (0 0 -1.156109e-05)
    Area magnitude of patch inlet1[3] = 1.156109e-05
    Reading surfaceScalarField phi
    Integral of phi over patch inlet1[3] = -8.63375e-06

Time = 6.69
    Area vector of patch inlet1[3] = (0 0 -1.156109e-05)
    Area magnitude of patch inlet1[3] = 1.156109e-05
    Reading surfaceScalarField phi
    Integral of phi over patch inlet1[3] = -8.8019929e-06

Time = 6.7
    Area vector of patch inlet1[3] = (0 0 -1.156109e-05)
    Area magnitude of patch inlet1[3] = 1.156109e-05
    Reading surfaceScalarField phi
    Integral of phi over patch inlet1[3] = -8.9617522e-06

Time = 6.71
    Area vector of patch inlet1[3] = (0 0 -1.156109e-05)
    Area magnitude of patch inlet1[3] = 1.156109e-05
    Reading surfaceScalarField phi
    Integral of phi over patch inlet1[3] = -8.9641451e-06

Time = 6.72
    Area vector of patch inlet1[3] = (0 0 -1.156109e-05)
    Area magnitude of patch inlet1[3] = 1.156109e-05
    Reading surfaceScalarField phi
    Integral of phi over patch inlet1[3] = -8.9886516e-06

Time = 6.73
    Area vector of patch inlet1[3] = (0 0 -1.156109e-05)
    Area magnitude of patch inlet1[3] = 1.156109e-05
    Reading surfaceScalarField phi
    Integral of phi over patch inlet1[3] = -8.4710184e-06

Time = 6.74
    Area vector of patch inlet1[3] = (0 0 -1.156109e-05)
    Area magnitude of patch inlet1[3] = 1.156109e-05
    Reading surfaceScalarField phi
    Integral of phi over patch inlet1[3] = -9.0438742e-06

Time = 6.75
    Area vector of patch inlet1[3] = (0 0 -1.156109e-05)
    Area magnitude of patch inlet1[3] = 1.156109e-05
    Reading surfaceScalarField phi
    Integral of phi over patch inlet1[3] = -8.9655566e-06

Time = 6.76
    Area vector of patch inlet1[3] = (0 0 -1.156109e-05)
    Area magnitude of patch inlet1[3] = 1.156109e-05
    Reading surfaceScalarField phi
    Integral of phi over patch inlet1[3] = -9.0367661e-06

Time = 6.77
    Area vector of patch inlet1[3] = (0 0 -1.156109e-05)
    Area magnitude of patch inlet1[3] = 1.156109e-05
    Reading surfaceScalarField phi
    Integral of phi over patch inlet1[3] = -9.0756339e-06

Time = 6.78
    Area vector of patch inlet1[3] = (0 0 -1.156109e-05)
    Area magnitude of patch inlet1[3] = 1.156109e-05
    Reading surfaceScalarField phi
    Integral of phi over patch inlet1[3] = -9.1226305e-06

Time = 6.79
    Area vector of patch inlet1[3] = (0 0 -1.156109e-05)
    Area magnitude of patch inlet1[3] = 1.156109e-05
    Reading surfaceScalarField phi
    Integral of phi over patch inlet1[3] = -8.9883349e-06

Time = 6.8
    Area vector of patch inlet1[3] = (0 0 -1.156109e-05)
    Area magnitude of patch inlet1[3] = 1.156109e-05
    Reading surfaceScalarField phi
    Integral of phi over patch inlet1[3] = -9.1457754e-06

Time = 6.81
    Area vector of patch inlet1[3] = (0 0 -1.156109e-05)
    Area magnitude of patch inlet1[3] = 1.156109e-05
    Reading surfaceScalarField phi
    Integral of phi over patch inlet1[3] = -9.0394064e-06

Time = 6.82
    Area vector of patch inlet1[3] = (0 0 -1.156109e-05)
    Area magnitude of patch inlet1[3] = 1.156109e-05
    Reading surfaceScalarField phi
    Integral of phi over patch inlet1[3] = -9.236622e-06

Time = 6.83
    Area vector of patch inlet1[3] = (0 0 -1.156109e-05)
    Area magnitude of patch inlet1[3] = 1.156109e-05
    Reading surfaceScalarField phi
    Integral of phi over patch inlet1[3] = -8.9235086e-06

Time = 6.84
    Area vector of patch inlet1[3] = (0 0 -1.156109e-05)
    Area magnitude of patch inlet1[3] = 1.156109e-05
    Reading surfaceScalarField phi
    Integral of phi over patch inlet1[3] = -8.9012495e-06

Time = 6.85
    Area vector of patch inlet1[3] = (0 0 -1.156109e-05)
    Area magnitude of patch inlet1[3] = 1.156109e-05
    Reading surfaceScalarField phi
    Integral of phi over patch inlet1[3] = -8.9493285e-06

Time = 6.86
    Area vector of patch inlet1[3] = (0 0 -1.156109e-05)
    Area magnitude of patch inlet1[3] = 1.156109e-05
    Reading surfaceScalarField phi
    Integral of phi over patch inlet1[3] = -8.66092e-06

Time = 6.87
    Area vector of patch inlet1[3] = (0 0 -1.156109e-05)
    Area magnitude of patch inlet1[3] = 1.156109e-05
    Reading surfaceScalarField phi
    Integral of phi over patch inlet1[3] = -8.8128929e-06

Time = 6.88
    Area vector of patch inlet1[3] = (0 0 -1.156109e-05)
    Area magnitude of patch inlet1[3] = 1.156109e-05
    Reading surfaceScalarField phi
    Integral of phi over patch inlet1[3] = -8.8246507e-06

Time = 6.89
    Area vector of patch inlet1[3] = (0 0 -1.156109e-05)
    Area magnitude of patch inlet1[3] = 1.156109e-05
    Reading surfaceScalarField phi
    Integral of phi over patch inlet1[3] = -8.6514319e-06

Time = 6.9
    Area vector of patch inlet1[3] = (0 0 -1.156109e-05)
    Area magnitude of patch inlet1[3] = 1.156109e-05
    Reading surfaceScalarField phi
    Integral of phi over patch inlet1[3] = -8.7259183e-06

Time = 6.91
    Area vector of patch inlet1[3] = (0 0 -1.156109e-05)
    Area magnitude of patch inlet1[3] = 1.156109e-05
    Reading surfaceScalarField phi
    Integral of phi over patch inlet1[3] = -8.6813539e-06

Time = 6.92
    Area vector of patch inlet1[3] = (0 0 -1.156109e-05)
    Area magnitude of patch inlet1[3] = 1.156109e-05
    Reading surfaceScalarField phi
    Integral of phi over patch inlet1[3] = -8.4012322e-06

Time = 6.93
    Area vector of patch inlet1[3] = (0 0 -1.156109e-05)
    Area magnitude of patch inlet1[3] = 1.156109e-05
    Reading surfaceScalarField phi
    Integral of phi over patch inlet1[3] = -8.6574451e-06

Time = 6.94
    Area vector of patch inlet1[3] = (0 0 -1.156109e-05)
    Area magnitude of patch inlet1[3] = 1.156109e-05
    Reading surfaceScalarField phi
    Integral of phi over patch inlet1[3] = -8.3552049e-06

Time = 6.95
    Area vector of patch inlet1[3] = (0 0 -1.156109e-05)
    Area magnitude of patch inlet1[3] = 1.156109e-05
    Reading surfaceScalarField phi
    Integral of phi over patch inlet1[3] = -8.5083288e-06

Time = 6.96
    Area vector of patch inlet1[3] = (0 0 -1.156109e-05)
    Area magnitude of patch inlet1[3] = 1.156109e-05
    Reading surfaceScalarField phi
    Integral of phi over patch inlet1[3] = -8.7816393e-06

Time = 6.97
    Area vector of patch inlet1[3] = (0 0 -1.156109e-05)
    Area magnitude of patch inlet1[3] = 1.156109e-05
    Reading surfaceScalarField phi
    Integral of phi over patch inlet1[3] = -8.9082354e-06

Time = 6.98
    Area vector of patch inlet1[3] = (0 0 -1.156109e-05)
    Area magnitude of patch inlet1[3] = 1.156109e-05
    Reading surfaceScalarField phi
    Integral of phi over patch inlet1[3] = -8.8069015e-06

Time = 6.99
    Area vector of patch inlet1[3] = (0 0 -1.156109e-05)
    Area magnitude of patch inlet1[3] = 1.156109e-05
    Reading surfaceScalarField phi
    Integral of phi over patch inlet1[3] = -8.5049208e-06

Time = 7
    Area vector of patch inlet1[3] = (0 0 -1.156109e-05)
    Area magnitude of patch inlet1[3] = 1.156109e-05
    Reading surfaceScalarField phi
    Integral of phi over patch inlet1[3] = -8.5188797e-06

End

